@<TRIPOS>MOLECULE
BZV
   73    72     1     0     0
SMALL
No Charge or Current Charge


@<TRIPOS>ATOM
      1 O2          -4.3160    16.7220    16.1430 o          1 BZV      -0.746000
      2 C1          -5.4000    16.5750    15.5980 c          1 BZV       0.716000
      3 O1          -6.4070    16.2110    16.1850 o          1 BZV      -0.746000
      4 C2          -5.5110    16.9060    14.0980 c3         1 BZV      -0.204400
      5 C3          -5.8650    18.4020    13.9010 c3         1 BZV      -0.058400
      6 C4          -5.8650    18.8750    12.4270 c3         1 BZV      -0.077400
      7 C5          -6.9470    18.2060    11.5380 c3         1 BZV      -0.073400
      8 C6          -7.0550    18.7860    10.1030 c3         1 BZV      -0.071400
      9 C7          -8.0690    19.9440     9.8810 c3         1 BZV      -0.069400
     10 C8          -7.7820    21.2740    10.6220 c3         1 BZV      -0.067400
     11 C9          -8.4430    21.3760    12.0190 c3         1 BZV      -0.080400
     12 C10         -7.9540    22.5690    12.8700 c3         1 BZV      -0.077400
     13 C11         -8.4330    23.9550    12.3760 c3         1 BZV      -0.073400
     14 C12         -7.9000    25.1680    13.1860 c3         1 BZV      -0.070400
     15 C13         -8.2210    25.1470    14.7030 c3         1 BZV      -0.073400
     16 C14         -7.1150    24.5020    15.5750 c3         1 BZV      -0.078400
     17 C15         -7.5850    24.1740    17.0110 c3         1 BZV      -0.071400
     18 C16         -6.5150    23.4840    17.8970 c3         1 BZV      -0.069400
     19 C17         -5.9230    22.1580    17.3420 c3         1 BZV      -0.072400
     20 C18         -6.9550    21.0730    16.9440 c3         1 BZV      -0.086400
     21 C19         -7.8220    20.5600    18.1160 c3         1 BZV      -0.056400
     22 C20         -8.7470    19.3600    17.7850 c3         1 BZV      -0.082400
     23 C21         -9.9260    19.6520    16.8190 c3         1 BZV      -0.060400
     24 C22         -9.6160    19.4330    15.3160 c3         1 BZV      -0.084400
     25 C23        -10.8370    19.6100    14.3820 c3         1 BZV      -0.074400
     26 C24        -11.4440    21.0290    14.3840 c3         1 BZV      -0.089100
     27 H2          -6.3300    16.3340    13.6450 hc         1 BZV       0.015700
     28 H3          -4.5430    16.7600    13.6040 hc         1 BZV       0.015700
     29 H4          -5.1390    19.0120    14.4550 hc         1 BZV       0.036200
     30 H5          -6.8450    18.6070    14.3480 hc         1 BZV       0.036200
     31 H6          -4.8770    18.6850    11.9900 hc         1 BZV       0.019700
     32 H7          -5.9940    19.9610    12.4200 hc         1 BZV       0.019700
     33 H8          -7.9270    18.2460    12.0290 hc         1 BZV       0.041200
     34 H9          -6.6990    17.1410    11.4470 hc         1 BZV       0.041200
     35 H10         -7.3550    17.9670     9.4370 hc         1 BZV       0.025200
     36 H11         -6.0620    19.0990     9.7580 hc         1 BZV       0.025200
     37 H12         -8.0800    20.1600     8.8050 hc         1 BZV       0.026200
     38 H13         -9.0810    19.5970    10.1250 hc         1 BZV       0.026200
     39 H14         -6.6980    21.4220    10.6990 hc         1 BZV       0.029700
     40 H15         -8.1600    22.0980    10.0050 hc         1 BZV       0.029700
     41 H16         -9.5320    21.4360    11.8980 hc         1 BZV       0.047700
     42 H17         -8.2530    20.4610    12.5860 hc         1 BZV       0.047700
     43 H18         -8.3190    22.4130    13.8910 hc         1 BZV       0.046200
     44 H19         -6.8580    22.5520    12.9180 hc         1 BZV       0.046200
     45 H20         -8.1330    24.0890    11.3300 hc         1 BZV       0.029700
     46 H21         -9.5290    23.9750    12.3900 hc         1 BZV       0.029700
     47 H22         -6.8160    25.2620    13.0380 hc         1 BZV       0.030200
     48 H23         -8.3430    26.0740    12.7540 hc         1 BZV       0.030200
     49 H24         -8.3690    26.1780    15.0490 hc         1 BZV       0.031700
     50 H25         -9.1760    24.6300    14.8620 hc         1 BZV       0.031700
     51 H26         -6.7580    23.5860    15.0960 hc         1 BZV       0.042200
     52 H27         -6.2540    25.1790    15.6200 hc         1 BZV       0.042200
     53 H28         -7.8980    25.1030    17.5020 hc         1 BZV       0.032200
     54 H29         -8.4770    23.5380    16.9640 hc         1 BZV       0.032200
     55 H30         -5.6900    24.1880    18.0620 hc         1 BZV       0.026200
     56 H31         -6.9510    23.2940    18.8850 hc         1 BZV       0.026200
     57 H32         -5.2420    21.7400    18.0940 hc         1 BZV       0.035700
     58 H33         -5.2980    22.3840    16.4690 hc         1 BZV       0.035700
     59 H34         -6.4160    20.2260    16.5030 hc         1 BZV       0.061700
     60 H35         -7.6000    21.4770    16.1580 hc         1 BZV       0.061700
     61 H36         -7.1540    20.2570    18.9320 hc         1 BZV       0.019700
     62 H37         -8.4340    21.3810    18.5070 hc         1 BZV       0.019700
     63 H38         -9.1760    19.0120    18.7340 hc         1 BZV       0.055200
     64 H39         -8.1490    18.5230    17.4040 hc         1 BZV       0.055200
     65 H40        -10.2810    20.6760    16.9860 hc         1 BZV       0.016700
     66 H41        -10.7570    18.9890    17.0890 hc         1 BZV       0.016700
     67 H42         -9.2280    18.4150    15.1810 hc         1 BZV       0.061700
     68 H43         -8.8240    20.1100    14.9850 hc         1 BZV       0.061700
     69 H44        -11.6150    18.8870    14.6580 hc         1 BZV       0.030700
     70 H45        -10.5310    19.3630    13.3590 hc         1 BZV       0.030700
     71 H46        -12.2230    21.1090    13.6170 hc         1 BZV       0.023367
     72 H47        -11.9010    21.2610    15.3530 hc         1 BZV       0.023367
     73 H48        -10.6780    21.7840    14.1740 hc         1 BZV       0.023367
@<TRIPOS>BOND
     1     1     2 1   
     2     2     3 1   
     3     2     4 1   
     4     4     5 1   
     5     4    27 1   
     6     4    28 1   
     7     5     6 1   
     8     5    29 1   
     9     5    30 1   
    10     6     7 1   
    11     6    31 1   
    12     6    32 1   
    13     7     8 1   
    14     7    33 1   
    15     7    34 1   
    16     8     9 1   
    17     8    35 1   
    18     8    36 1   
    19     9    10 1   
    20     9    37 1   
    21     9    38 1   
    22    10    11 1   
    23    10    39 1   
    24    10    40 1   
    25    11    12 1   
    26    11    41 1   
    27    11    42 1   
    28    12    13 1   
    29    12    43 1   
    30    12    44 1   
    31    13    14 1   
    32    13    45 1   
    33    13    46 1   
    34    14    15 1   
    35    14    47 1   
    36    14    48 1   
    37    15    16 1   
    38    15    49 1   
    39    15    50 1   
    40    16    17 1   
    41    16    51 1   
    42    16    52 1   
    43    17    18 1   
    44    17    53 1   
    45    17    54 1   
    46    18    19 1   
    47    18    55 1   
    48    18    56 1   
    49    19    20 1   
    50    19    57 1   
    51    19    58 1   
    52    20    21 1   
    53    20    59 1   
    54    20    60 1   
    55    21    22 1   
    56    21    61 1   
    57    21    62 1   
    58    22    23 1   
    59    22    63 1   
    60    22    64 1   
    61    23    24 1   
    62    23    65 1   
    63    23    66 1   
    64    24    25 1   
    65    24    67 1   
    66    24    68 1   
    67    25    26 1   
    68    25    69 1   
    69    25    70 1   
    70    26    71 1   
    71    26    72 1   
    72    26    73 1   
@<TRIPOS>SUBSTRUCTURE
     1 BZV         1 TEMP              0 ****  ****    0 ROOT
