@<TRIPOS>MOLECULE
BZV
   73    72     1     0     0
SMALL
abcg2


@<TRIPOS>ATOM
      1 O2          -4.6800    15.9700    15.8760 o          1 BZV      -0.746000
      2 C1          -5.5190    16.7990    15.4700 c          1 BZV       0.716000
      3 O1          -6.4490    17.2960    16.1430 o          1 BZV      -0.746000
      4 C2          -5.4310    17.2130    13.9900 c3         1 BZV      -0.204400
      5 C3          -5.8150    18.6590    13.6970 c3         1 BZV      -0.058400
      6 C4          -5.7530    19.0340    12.2200 c3         1 BZV      -0.077400
      7 C5          -6.7540    18.2740    11.3490 c3         1 BZV      -0.073400
      8 C6          -6.9520    18.8610     9.9480 c3         1 BZV      -0.071400
      9 C7          -8.0400    19.9270     9.7950 c3         1 BZV      -0.069400
     10 C8          -7.8400    21.2380    10.5640 c3         1 BZV      -0.067400
     11 C9          -8.4140    21.2320    11.9810 c3         1 BZV      -0.080400
     12 C10         -7.9390    22.3910    12.8520 c3         1 BZV      -0.077400
     13 C11         -8.3980    23.7640    12.3740 c3         1 BZV      -0.073400
     14 C12         -7.8700    24.9470    13.1850 c3         1 BZV      -0.070400
     15 C13         -8.2090    24.9080    14.6810 c3         1 BZV      -0.073400
     16 C14         -7.1250    24.2740    15.5500 c3         1 BZV      -0.078400
     17 C15         -7.5750    24.0570    16.9890 c3         1 BZV      -0.071400
     18 C16         -6.5180    23.4290    17.8950 c3         1 BZV      -0.069400
     19 C17         -5.9760    22.0800    17.4170 c3         1 BZV      -0.072400
     20 C18         -7.0420    21.0400    17.0810 c3         1 BZV      -0.086400
     21 C19         -7.9310    20.6650    18.2620 c3         1 BZV      -0.056400
     22 C20         -8.9110    19.5190    18.0110 c3         1 BZV      -0.082400
     23 C21        -10.0160    19.8010    16.9860 c3         1 BZV      -0.060400
     24 C22         -9.6630    19.4880    15.5330 c3         1 BZV      -0.084400
     25 C23        -10.8380    19.6350    14.5710 c3         1 BZV      -0.074400
     26 C24        -11.3940    21.0520    14.4890 c3         1 BZV      -0.089100
     27 H2          -6.0890    16.5400    13.4270 hc         1 BZV       0.015700
     28 H3          -4.4220    17.0190    13.6130 hc         1 BZV       0.015700
     29 H4          -5.1580    19.3280    14.2620 hc         1 BZV       0.036200
     30 H5          -6.8270    18.8510    14.0660 hc         1 BZV       0.036200
     31 H6          -4.7430    18.8600    11.8330 hc         1 BZV       0.019700
     32 H7          -5.9190    20.1100    12.1290 hc         1 BZV       0.019700
     33 H8          -7.7210    18.2140    11.8620 hc         1 BZV       0.041200
     34 H9          -6.4150    17.2390    11.2520 hc         1 BZV       0.041200
     35 H10         -7.2020    18.0490     9.2590 hc         1 BZV       0.025200
     36 H11         -6.0000    19.2670     9.5890 hc         1 BZV       0.025200
     37 H12         -8.1150    20.1560     8.7280 hc         1 BZV       0.026200
     38 H13         -9.0070    19.4930    10.0710 hc         1 BZV       0.026200
     39 H14         -6.7720    21.4840    10.5980 hc         1 BZV       0.029700
     40 H15         -8.3070    22.0500    10.0010 hc         1 BZV       0.029700
     41 H16         -9.5080    21.2400    11.9210 hc         1 BZV       0.047700
     42 H17         -8.1550    20.2990    12.4860 hc         1 BZV       0.047700
     43 H18         -8.3000    22.2250    13.8720 hc         1 BZV       0.046200
     44 H19         -6.8450    22.3640    12.9110 hc         1 BZV       0.046200
     45 H20         -8.1050    23.9070    11.3300 hc         1 BZV       0.029700
     46 H21         -9.4940    23.7870    12.3850 hc         1 BZV       0.029700
     47 H22         -6.7840    25.0180    13.0620 hc         1 BZV       0.030200
     48 H23         -8.2770    25.8600    12.7430 hc         1 BZV       0.030200
     49 H24         -8.3930    25.9230    15.0450 hc         1 BZV       0.031700
     50 H25         -9.1530    24.3690    14.8260 hc         1 BZV       0.031700
     51 H26         -6.8170    23.3230    15.1130 hc         1 BZV       0.042200
     52 H27         -6.2330    24.9110    15.5350 hc         1 BZV       0.042200
     53 H28         -7.8810    25.0160    17.4200 hc         1 BZV       0.032200
     54 H29         -8.4770    23.4350    16.9900 hc         1 BZV       0.032200
     55 H30         -5.6780    24.1230    18.0000 hc         1 BZV       0.026200
     56 H31         -6.9400    23.3200    18.8990 hc         1 BZV       0.026200
     57 H32         -5.3120    21.6770    18.1880 hc         1 BZV       0.035700
     58 H33         -5.3460    22.2330    16.5350 hc         1 BZV       0.035700
     59 H34         -6.5490    20.1370    16.7070 hc         1 BZV       0.061700
     60 H35         -7.6530    21.4090    16.2530 hc         1 BZV       0.061700
     61 H36         -7.2880    20.3910    19.1050 hc         1 BZV       0.019700
     62 H37         -8.4980    21.5420    18.5940 hc         1 BZV       0.019700
     63 H38         -9.3840    19.2800    18.9680 hc         1 BZV       0.055200
     64 H39         -8.3590    18.6190    17.7210 hc         1 BZV       0.055200
     65 H40        -10.3310    20.8460    17.0840 hc         1 BZV       0.016700
     66 H41        -10.8960    19.2040    17.2470 hc         1 BZV       0.016700
     67 H42         -9.2840    18.4620    15.4780 hc         1 BZV       0.061700
     68 H43         -8.8450    20.1260    15.1880 hc         1 BZV       0.061700
     69 H44        -11.6370    18.9470    14.8650 hc         1 BZV       0.030700
     70 H45        -10.5170    19.3190    13.5750 hc         1 BZV       0.030700
     71 H46        -12.1600    21.1310    13.7160 hc         1 BZV       0.023367
     72 H47        -11.8470    21.3690    15.4290 hc         1 BZV       0.023367
     73 H48        -10.6070    21.7690    14.2450 hc         1 BZV       0.023367
@<TRIPOS>BOND
     1     1     2 1   
     2     2     3 1   
     3     2     4 1   
     4     4     5 1   
     5     4    27 1   
     6     4    28 1   
     7     5     6 1   
     8     5    29 1   
     9     5    30 1   
    10     6     7 1   
    11     6    31 1   
    12     6    32 1   
    13     7     8 1   
    14     7    33 1   
    15     7    34 1   
    16     8     9 1   
    17     8    35 1   
    18     8    36 1   
    19     9    10 1   
    20     9    37 1   
    21     9    38 1   
    22    10    11 1   
    23    10    39 1   
    24    10    40 1   
    25    11    12 1   
    26    11    41 1   
    27    11    42 1   
    28    12    13 1   
    29    12    43 1   
    30    12    44 1   
    31    13    14 1   
    32    13    45 1   
    33    13    46 1   
    34    14    15 1   
    35    14    47 1   
    36    14    48 1   
    37    15    16 1   
    38    15    49 1   
    39    15    50 1   
    40    16    17 1   
    41    16    51 1   
    42    16    52 1   
    43    17    18 1   
    44    17    53 1   
    45    17    54 1   
    46    18    19 1   
    47    18    55 1   
    48    18    56 1   
    49    19    20 1   
    50    19    57 1   
    51    19    58 1   
    52    20    21 1   
    53    20    59 1   
    54    20    60 1   
    55    21    22 1   
    56    21    61 1   
    57    21    62 1   
    58    22    23 1   
    59    22    63 1   
    60    22    64 1   
    61    23    24 1   
    62    23    65 1   
    63    23    66 1   
    64    24    25 1   
    65    24    67 1   
    66    24    68 1   
    67    25    26 1   
    68    25    69 1   
    69    25    70 1   
    70    26    71 1   
    71    26    72 1   
    72    26    73 1   
@<TRIPOS>SUBSTRUCTURE
     1 BZV         1 TEMP              0 ****  ****    0 ROOT
