@<TRIPOS>MOLECULE
BZX
   16    17     1     0     0
SMALL
abcg2


@<TRIPOS>ATOM
      1 C1          -0.7860    -1.1790     0.0620 ca         1 BZX      -0.132000
      2 C2          -1.8580    -0.2710     0.0890 ca         1 BZX       0.141100
      3 C3          -1.6300     1.1000     0.0650 ca         1 BZX      -0.211000
      4 C4          -0.3260     1.6140     0.0260 ca         1 BZX      -0.053000
      5 C5           0.7100     0.7190     0.0020 ca         1 BZX       0.012100
      6 C6           0.4760    -0.6470     0.0130 ca         1 BZX       0.089100
      7 O7           1.6580    -1.3050    -0.0500 os         1 BZX      -0.341100
      8 C8           2.6590    -0.3160     0.1670 c5         1 BZX       0.371600
      9 O9           2.0520     0.9440    -0.0690 os         1 BZX      -0.342100
     10 O10         -3.0960    -0.8160     0.1360 oh         1 BZX      -0.529100
     11 H1          -0.9600    -2.2470     0.0720 ha         1 BZX       0.148000
     12 H3          -2.4650     1.7890     0.0840 ha         1 BZX       0.119000
     13 H4          -0.1620     2.6830     0.0070 ha         1 BZX       0.133000
     14 H8           3.0150    -0.3750     1.2020 h2         1 BZX       0.064700
     15 H8A          3.4830    -0.4680    -0.5290 h2         1 BZX       0.064700
     16 HO10        -3.7570    -0.1200     0.2330 ho         1 BZX       0.465000
@<TRIPOS>BOND
     1     1     2 ar  
     2     1     6 ar  
     3     1    11 1   
     4     2     3 ar  
     5     2    10 1   
     6     3     4 ar  
     7     3    12 1   
     8     4     5 ar  
     9     4    13 1   
    10     5     6 ar  
    11     5     9 1   
    12     6     7 1   
    13     7     8 1   
    14     8     9 1   
    15     8    14 1   
    16     8    15 1   
    17    10    16 1   
@<TRIPOS>SUBSTRUCTURE
     1 BZX         1 TEMP              0 ****  ****    0 ROOT
