@<TRIPOS>MOLECULE
BZX
   16    17     1     0     0
SMALL
No Charge or Current Charge


@<TRIPOS>ATOM
      1 C1          -0.7890    -1.1960     0.1020 ca         1 BZX      -0.132000
      2 C2          -1.8790    -0.3040     0.0840 ca         1 BZX       0.141100
      3 C3          -1.6610     1.0930     0.0600 ca         1 BZX      -0.211000
      4 C4          -0.3450     1.6070     0.0540 ca         1 BZX      -0.053000
      5 C5           0.7170     0.6930     0.0740 ca         1 BZX       0.012100
      6 C6           0.5020    -0.6560     0.0970 ca         1 BZX       0.089100
      7 O7           1.6590    -1.3660     0.1050 os         1 BZX      -0.341100
      8 C8           2.6870    -0.3120     0.1400 c5         1 BZX       0.371600
      9 O9           2.0380     1.0080     0.0640 os         1 BZX      -0.342100
     10 O10         -3.1500    -0.7930     0.0890 oh         1 BZX      -0.529100
     11 H1          -0.9440    -2.2710     0.1180 ha         1 BZX       0.148000
     12 H3          -2.5020     1.7820     0.0460 ha         1 BZX       0.119000
     13 H4          -0.1580     2.6780     0.0330 ha         1 BZX       0.133000
     14 H8           3.2450    -0.3860     1.0810 h2         1 BZX       0.064700
     15 H8A          3.3680    -0.4360    -0.7110 h2         1 BZX       0.064700
     16 HO10        -3.7740    -0.0360     0.0750 ho         1 BZX       0.465000
@<TRIPOS>BOND
     1     1     2 ar  
     2     1     6 ar  
     3     1    11 1   
     4     2     3 ar  
     5     2    10 1   
     6     3     4 ar  
     7     3    12 1   
     8     4     5 ar  
     9     4    13 1   
    10     5     6 ar  
    11     5     9 1   
    12     6     7 1   
    13     7     8 1   
    14     8     9 1   
    15     8    14 1   
    16     8    15 1   
    17    10    16 1   
@<TRIPOS>SUBSTRUCTURE
     1 BZX         1 TEMP              0 ****  ****    0 ROOT
