@<TRIPOS>MOLECULE
BZY
   56    57     1     0     0
SMALL
No Charge or Current Charge


@<TRIPOS>ATOM
      1 C1          -9.6220    20.4730    -3.9480 ca         1 BZY      -0.102300
      2 C2         -10.7840    21.3520    -4.3900 c3         1 BZY       0.146300
      3 N3         -11.8300    21.4040    -3.3670 ns         1 BZY      -0.498900
      4 C4         -11.9410    22.3880    -2.4070 c          1 BZY       0.587100
      5 C5         -13.1220    22.2060    -1.4070 c3         1 BZY       0.042700
      6 N6         -13.0010    23.1640    -0.2880 ns         1 BZY      -0.487900
      7 C7         -13.6310    23.0450     0.9350 c          1 BZY       0.610100
      8 C8         -13.3750    24.2300     1.9400 c3         1 BZY       0.087500
      9 C9         -14.6650    25.0480     2.2030 c3         1 BZY      -0.110400
     10 C10        -15.3020    25.6440     0.9250 c3         1 BZY      -0.020100
     11 N11        -12.7630    23.8330     3.2520 n8         1 BZY      -0.977200
     12 O12        -14.3220    22.0710     1.2150 o          1 BZY      -0.622100
     13 C13        -14.4950    22.3550    -2.1050 c3         1 BZY      -0.103100
     14 O14        -11.1600    23.3310    -2.3520 o          1 BZY      -0.589100
     15 C15         -9.6050    19.1030    -4.2620 ca         1 BZY      -0.108500
     16 C16         -8.5350    18.2910    -3.8490 ca         1 BZY      -0.078500
     17 C17         -7.4490    18.8340    -3.1240 ca         1 BZY      -0.145900
     18 C18         -6.3270    17.9490    -2.6620 ce         1 BZY       0.664800
     19 N19         -5.1370    18.5210    -2.3810 nv         1 BZY      -1.088200
     20 N20         -6.4070    16.6840    -2.6190 n2         1 BZY      -0.834100
     21 C21         -7.4880    20.2100    -2.7910 ca         1 BZY      -0.078500
     22 C22         -8.5600    21.0190    -3.2050 ca         1 BZY      -0.108500
     23 C23        -16.5310    26.4860     1.2410 ca         1 BZY      -0.119300
     24 C24        -16.4050    27.8730     1.4590 ca         1 BZY      -0.069000
     25 C25        -17.5400    28.6490     1.7550 ca         1 BZY      -0.168000
     26 C26        -18.8040    28.0420     1.8340 ca         1 BZY       0.133100
     27 O27        -19.9090    28.7870     2.1200 oh         1 BZY      -0.538100
     28 C28        -18.9340    26.6620     1.6200 ca         1 BZY      -0.168000
     29 C29        -17.8010    25.8840     1.3240 ca         1 BZY      -0.069000
     30 H1         -11.2180    20.9520    -5.3160 h1         1 BZY       0.066700
     31 H2         -10.4230    22.3660    -4.6090 h1         1 BZY       0.066700
     32 H3         -12.5090    20.6530    -3.3370 hn         1 BZY       0.314500
     33 H4         -13.0410    21.1890    -1.0020 h1         1 BZY       0.062700
     34 H5         -12.4100    23.9780    -0.4220 hn         1 BZY       0.324500
     35 H6         -12.6590    24.9070     1.4520 h1         1 BZY       0.063700
     36 H7         -15.4060    24.4110     2.7030 hc         1 BZY       0.054700
     37 H8         -14.4380    25.8710     2.8920 hc         1 BZY       0.054700
     38 H9         -14.5550    26.2510     0.3980 hc         1 BZY       0.045700
     39 H10        -15.5780    24.8350     0.2360 hc         1 BZY       0.045700
     40 H11        -12.7490    24.6430     3.8840 hn         1 BZY       0.406000
     41 H12        -13.3900    23.1690     3.7250 hn         1 BZY       0.406000
     42 H14        -15.3150    22.1970    -1.3950 hc         1 BZY       0.052367
     43 H15        -14.6040    23.3570    -2.5360 hc         1 BZY       0.052367
     44 H16        -14.6070    21.6210    -2.9120 hc         1 BZY       0.052367
     45 H17        -10.4250    18.6610    -4.8250 ha         1 BZY       0.128000
     46 H18         -8.5490    17.2330    -4.1030 ha         1 BZY       0.126500
     47 H19         -4.3260    17.9250    -2.5060 hn         1 BZY       0.466000
     48 H20         -5.0240    19.4700    -2.7200 hn         1 BZY       0.466000
     49 H21         -5.6060    16.3350    -2.0810 hn         1 BZY       0.366400
     50 H22         -6.6950    20.6620    -2.1990 ha         1 BZY       0.126500
     51 H23         -8.5690    22.0750    -2.9400 ha         1 BZY       0.128000
     52 H24        -15.4280    28.3490     1.4010 ha         1 BZY       0.114000
     53 H25        -17.4290    29.7180     1.9210 ha         1 BZY       0.122000
     54 H26        -19.6310    29.7210     2.2380 ho         1 BZY       0.462000
     55 H27        -19.9130    26.1930     1.6830 ha         1 BZY       0.122000
     56 H28        -17.9110    24.8140     1.1610 ha         1 BZY       0.114000
@<TRIPOS>BOND
     1     1     2 1   
     2     1    15 ar  
     3     1    22 ar  
     4     2     3 1   
     5     2    30 1   
     6     2    31 1   
     7     3     4 1   
     8     3    32 1   
     9     4     5 1   
    10     4    14 2   
    11     5     6 1   
    12     5    13 1   
    13     5    33 1   
    14     6     7 1   
    15     6    34 1   
    16     7     8 1   
    17     7    12 2   
    18     8     9 1   
    19     8    11 1   
    20     8    35 1   
    21     9    10 1   
    22     9    36 1   
    23     9    37 1   
    24    10    23 1   
    25    10    38 1   
    26    10    39 1   
    27    11    40 1   
    28    11    41 1   
    29    13    42 1   
    30    13    43 1   
    31    13    44 1   
    32    15    16 ar  
    33    15    45 1   
    34    16    17 ar  
    35    16    46 1   
    36    17    18 1   
    37    17    21 ar  
    38    18    19 1   
    39    18    20 2   
    40    19    47 1   
    41    19    48 1   
    42    20    49 1   
    43    21    22 ar  
    44    21    50 1   
    45    22    51 1   
    46    23    24 ar  
    47    23    29 ar  
    48    24    25 ar  
    49    24    52 1   
    50    25    26 ar  
    51    25    53 1   
    52    26    27 1   
    53    26    28 ar  
    54    27    54 1   
    55    28    29 ar  
    56    28    55 1   
    57    29    56 1   
@<TRIPOS>SUBSTRUCTURE
     1 BZY         1 TEMP              0 ****  ****    0 ROOT
