@<TRIPOS>MOLECULE
BZY
   56    57     1     0     0
SMALL
abcg2


@<TRIPOS>ATOM
      1 C1         -10.0390    20.5650    -3.4730 ca         1 BZY      -0.102300
      2 C2         -10.4720    21.5940    -4.4960 c3         1 BZY       0.146300
      3 N3         -11.6030    22.3980    -4.0770 ns         1 BZY      -0.498900
      4 C4         -11.4850    23.6380    -3.5700 c          1 BZY       0.587100
      5 C5         -12.8180    24.3030    -3.1970 c3         1 BZY       0.042700
      6 N6         -12.6800    25.0730    -1.9760 ns         1 BZY      -0.487900
      7 C7         -12.3930    24.4980    -0.7970 c          1 BZY       0.610100
      8 C8         -12.3520    25.4170     0.4170 c3         1 BZY       0.087500
      9 C9         -13.6040    25.1810     1.2790 c3         1 BZY      -0.110400
     10 C10        -14.9250    25.4910     0.5620 c3         1 BZY      -0.020100
     11 N11        -11.0900    25.1680     1.1210 n8         1 BZY      -0.977200
     12 O12        -12.2040    23.2850    -0.6860 o          1 BZY      -0.622100
     13 C13        -13.2790    25.2120    -4.3330 c3         1 BZY      -0.103100
     14 O14        -10.4150    24.2300    -3.4590 o          1 BZY      -0.589100
     15 C15         -9.3920    19.4020    -3.8970 ca         1 BZY      -0.108500
     16 C16         -8.9570    18.4560    -2.9820 ca         1 BZY      -0.078500
     17 C17         -9.1560    18.6470    -1.6130 ca         1 BZY      -0.145900
     18 C18         -8.6920    17.6100    -0.6470 ce         1 BZY       0.664800
     19 N19         -8.4500    18.0530     0.6260 nv         1 BZY      -1.088200
     20 N20         -8.5890    16.3860    -1.0340 n2         1 BZY      -0.834100
     21 C21         -9.8030    19.8090    -1.1900 ca         1 BZY      -0.078500
     22 C22        -10.2430    20.7550    -2.1090 ca         1 BZY      -0.108500
     23 C23        -16.1240    25.2690     1.4450 ca         1 BZY      -0.119300
     24 C24        -16.6490    26.2970     2.2270 ca         1 BZY      -0.069000
     25 C25        -17.7370    26.0860     3.0690 ca         1 BZY      -0.168000
     26 C26        -18.3210    24.8240     3.1400 ca         1 BZY       0.133100
     27 O27        -19.3960    24.5550     3.9430 oh         1 BZY      -0.538100
     28 C28        -17.8110    23.7820     2.3680 ca         1 BZY      -0.168000
     29 C29        -16.7250    24.0120     1.5340 ca         1 BZY      -0.069000
     30 H1         -10.7210    21.0950    -5.4330 h1         1 BZY       0.066700
     31 H2          -9.6470    22.2790    -4.6980 h1         1 BZY       0.066700
     32 H3         -12.5080    21.9540    -4.0540 hn         1 BZY       0.314500
     33 H4         -13.5620    23.5210    -3.0280 h1         1 BZY       0.062700
     34 H5         -12.7830    26.0740    -2.0220 hn         1 BZY       0.324500
     35 H6         -12.3490    26.4560     0.0790 h1         1 BZY       0.063700
     36 H7         -13.6020    24.1420     1.6180 hc         1 BZY       0.054700
     37 H8         -13.5180    25.8110     2.1690 hc         1 BZY       0.054700
     38 H9         -14.9070    26.5270     0.2140 hc         1 BZY       0.045700
     39 H10        -15.0120    24.8600    -0.3260 hc         1 BZY       0.045700
     40 H11        -11.0780    25.7030     1.9830 hn         1 BZY       0.406000
     41 H12        -11.0560    24.1880     1.3900 hn         1 BZY       0.406000
     42 H14        -14.2350    25.6730    -4.0790 hc         1 BZY       0.052367
     43 H15        -12.5440    25.9980    -4.5130 hc         1 BZY       0.052367
     44 H16        -13.4040    24.6340    -5.2480 hc         1 BZY       0.052367
     45 H17         -9.2310    19.2360    -4.9560 ha         1 BZY       0.128000
     46 H18         -8.4600    17.5580    -3.3210 ha         1 BZY       0.126500
     47 H19         -8.0030    17.4150     1.2670 hn         1 BZY       0.466000
     48 H20         -8.2310    19.0260     0.7690 hn         1 BZY       0.466000
     49 H21         -8.2330    15.7980    -0.2800 hn         1 BZY       0.366400
     50 H22         -9.9950    19.9750    -0.1370 ha         1 BZY       0.126500
     51 H23        -10.7600    21.6380    -1.7550 ha         1 BZY       0.128000
     52 H24        -16.2060    27.2850     2.1770 ha         1 BZY       0.114000
     53 H25        -18.1360    26.8980     3.6660 ha         1 BZY       0.122000
     54 H26        -19.6570    25.3540     4.4200 ho         1 BZY       0.462000
     55 H27        -18.2720    22.8040     2.4250 ha         1 BZY       0.122000
     56 H28        -16.3390    23.1950     0.9340 ha         1 BZY       0.114000
@<TRIPOS>BOND
     1     1     2 1   
     2     1    15 ar  
     3     1    22 ar  
     4     2     3 1   
     5     2    30 1   
     6     2    31 1   
     7     3     4 1   
     8     3    32 1   
     9     4     5 1   
    10     4    14 2   
    11     5     6 1   
    12     5    13 1   
    13     5    33 1   
    14     6     7 1   
    15     6    34 1   
    16     7     8 1   
    17     7    12 2   
    18     8     9 1   
    19     8    11 1   
    20     8    35 1   
    21     9    10 1   
    22     9    36 1   
    23     9    37 1   
    24    10    23 1   
    25    10    38 1   
    26    10    39 1   
    27    11    40 1   
    28    11    41 1   
    29    13    42 1   
    30    13    43 1   
    31    13    44 1   
    32    15    16 ar  
    33    15    45 1   
    34    16    17 ar  
    35    16    46 1   
    36    17    18 1   
    37    17    21 ar  
    38    18    19 1   
    39    18    20 2   
    40    19    47 1   
    41    19    48 1   
    42    20    49 1   
    43    21    22 ar  
    44    21    50 1   
    45    22    51 1   
    46    23    24 ar  
    47    23    29 ar  
    48    24    25 ar  
    49    24    52 1   
    50    25    26 ar  
    51    25    53 1   
    52    26    27 1   
    53    26    28 ar  
    54    27    54 1   
    55    28    29 ar  
    56    28    55 1   
    57    29    56 1   
@<TRIPOS>SUBSTRUCTURE
     1 BZY         1 TEMP              0 ****  ****    0 ROOT
