@<TRIPOS>MOLECULE
BZZ
   19    19     1     0     0
SMALL
No Charge or Current Charge


@<TRIPOS>ATOM
      1 C1           0.8600    -0.3990     0.5620 ca         1 BZZ      -0.114500
      2 C2           0.8140    -0.4750     1.9650 ca         1 BZZ      -0.095000
      3 C3           1.8240    -1.1560     2.6740 ca         1 BZZ      -0.097300
      4 C4           2.8810    -1.7600     1.9620 ca         1 BZZ      -0.095000
      5 C5           2.9260    -1.6830     0.5590 ca         1 BZZ      -0.114500
      6 C6           1.9160    -1.0030    -0.1420 ca         1 BZZ      -0.106000
      7 NX1          2.4130    -0.0570     4.8140 n7         1 BZZ      -0.628200
      8 NX2          2.3680     0.0300     6.2820 n8         1 BZZ      -0.774000
      9 C7           1.7710    -1.2430     4.1960 c3         1 BZZ       0.203100
     10 H1           0.0780     0.1290     0.0200 ha         1 BZZ       0.112000
     11 H2          -0.0060    -0.0040     2.5030 ha         1 BZZ       0.115000
     12 H4           3.6670    -2.2890     2.4970 ha         1 BZZ       0.115000
     13 H5           3.7440    -2.1510     0.0160 ha         1 BZZ       0.112000
     14 H6           1.9510    -0.9440    -1.2280 ha         1 BZZ       0.111000
     15 HNX1         3.3650     0.0790     4.4250 hn         1 BZZ       0.380000
     16 HX21         3.2000    -0.3680     6.7520 hn         1 BZZ       0.389000
     17 HX22         2.2460     0.9940     6.6350 hn         1 BZZ       0.389000
     18 H11          0.7210    -1.3220     4.5130 h1         1 BZZ       0.048200
     19 H12          2.2760    -2.1650     4.5180 h1         1 BZZ       0.048200
@<TRIPOS>BOND
     1     1     2 ar  
     2     1     6 ar  
     3     1    10 1   
     4     2     3 ar  
     5     2    11 1   
     6     3     4 ar  
     7     3     9 1   
     8     4     5 ar  
     9     4    12 1   
    10     5     6 ar  
    11     5    13 1   
    12     6    14 1   
    13     7     8 1   
    14     7     9 1   
    15     7    15 1   
    16     8    16 1   
    17     8    17 1   
    18     9    18 1   
    19     9    19 1   
@<TRIPOS>SUBSTRUCTURE
     1 BZZ         1 TEMP              0 ****  ****    0 ROOT
