@<TRIPOS>MOLECULE
BZZ
   19    19     1     0     0
SMALL
abcg2


@<TRIPOS>ATOM
      1 C1           0.9360    -0.3320     0.6440 ca         1 BZZ      -0.114500
      2 C2           0.9240    -0.4220     2.0280 ca         1 BZZ      -0.095000
      3 C3           1.8800    -1.1820     2.7010 ca         1 BZZ      -0.097300
      4 C4           2.8550    -1.8390     1.9580 ca         1 BZZ      -0.095000
      5 C5           2.8730    -1.7510     0.5700 ca         1 BZZ      -0.114500
      6 C6           1.9130    -0.9970    -0.0890 ca         1 BZZ      -0.106000
      7 NX1          2.2140     0.0390     4.7630 n7         1 BZZ      -0.628200
      8 NX2          2.2280    -0.0240     6.1740 n8         1 BZZ      -0.774000
      9 C7           1.8680    -1.2560     4.2040 c3         1 BZZ       0.203100
     10 H1           0.1820     0.2540     0.1350 ha         1 BZZ       0.112000
     11 H2           0.1600     0.0970     2.5950 ha         1 BZZ       0.115000
     12 H4           3.6110    -2.4250     2.4690 ha         1 BZZ       0.115000
     13 H5           3.6380    -2.2690     0.0070 ha         1 BZZ       0.112000
     14 H6           1.9230    -0.9280    -1.1700 ha         1 BZZ       0.111000
     15 HNX1         3.1230     0.3130     4.4040 hn         1 BZZ       0.380000
     16 HX21         3.1060    -0.4080     6.5120 hn         1 BZZ       0.389000
     17 HX22         2.1710     0.9230     6.5240 hn         1 BZZ       0.389000
     18 H11          0.8690    -1.5190     4.5600 h1         1 BZZ       0.048200
     19 H12          2.5440    -2.0590     4.5340 h1         1 BZZ       0.048200
@<TRIPOS>BOND
     1     1     2 ar  
     2     1     6 ar  
     3     1    10 1   
     4     2     3 ar  
     5     2    11 1   
     6     3     4 ar  
     7     3     9 1   
     8     4     5 ar  
     9     4    12 1   
    10     5     6 ar  
    11     5    13 1   
    12     6    14 1   
    13     7     8 1   
    14     7     9 1   
    15     7    15 1   
    16     8    16 1   
    17     8    17 1   
    18     9    18 1   
    19     9    19 1   
@<TRIPOS>SUBSTRUCTURE
     1 BZZ         1 TEMP              0 ****  ****    0 ROOT
