@<TRIPOS>MOLECULE
400
   66    70     1     0     0
SMALL
abcg2


@<TRIPOS>ATOM
      1 C1           0.1460    -2.6600    -1.0400 cc         1 400       0.422900
      2 N2           0.2580    -3.8850    -1.5140 nd         1 400      -0.479800
      3 N3           1.5650    -4.1590    -1.5640 na         1 400       0.007800
      4 C4           1.4240    -2.1260    -0.7830 cc         1 400      -0.296000
      5 C5           2.3130    -3.1250    -1.1430 cd         1 400      -0.107000
      6 C6           3.6770    -2.7820    -0.9720 cd         1 400      -0.052000
      7 C7           3.7840    -1.5220    -0.4670 cc         1 400      -0.233600
      8 S8           2.2450    -0.7280    -0.2170 ss         1 400       0.197000
      9 N9          -1.0550    -1.9940    -0.8530 ns         1 400      -0.482400
     10 C10         -2.2770    -2.5630    -0.6370 c          1 400       0.631700
     11 C11         -3.3830    -1.6090    -0.3810 ca         1 400      -0.204600
     12 O12         -2.4540    -3.7670    -0.6630 o          1 400      -0.554100
     13 C13         -4.6940    -2.0300    -0.6120 ca         1 400      -0.030000
     14 C14         -5.7690    -1.1970    -0.3940 ca         1 400      -0.190500
     15 C15         -5.5960     0.1130     0.0950 ca         1 400       0.342000
     16 C16         -4.2740     0.5240     0.3460 ca         1 400      -0.190500
     17 C17         -3.2030    -0.3190     0.1130 ca         1 400      -0.030000
     18 N18         -6.6780     0.9300     0.3400 nh         1 400      -0.794400
     19 C19         -6.4450     2.2700     0.8460 c6         1 400       0.204800
     20 C20         -7.7120     2.8550     1.4420 c6         1 400       0.152300
     21 N21         -8.8010     2.8420     0.4900 n3         1 400      -0.707600
     22 C22         -9.0570     1.4770     0.0820 c6         1 400       0.152300
     23 C23         -7.8270     0.8620    -0.5540 c6         1 400       0.204800
     24 C24         -9.9860     3.4620     1.0380 c3         1 400       0.149100
     25 C25          5.0750    -0.8520    -0.1770 c          1 400       0.637700
     26 O26          6.1030    -1.2370    -0.7120 o          1 400      -0.586100
     27 N27          5.0340     0.1680     0.6960 ns         1 400      -0.503900
     28 C28          6.2090     0.9620     1.0100 c3         1 400       0.165000
     29 C29          6.5470     1.9190    -0.1120 ca         1 400      -0.099300
     30 C30          5.9900     1.7040     2.3290 c3         1 400      -0.090400
     31 C31          7.8570     2.0300    -0.5630 ca         1 400      -0.092500
     32 C32          8.1900     2.9380    -1.5600 ca         1 400      -0.111500
     33 C33          7.2090     3.7450    -2.1200 ca         1 400      -0.105000
     34 C34          5.8970     3.6380    -1.6770 ca         1 400      -0.111500
     35 C35          5.5680     2.7300    -0.6800 ca         1 400      -0.092500
     36 C36          5.8580     0.7760     3.5290 c3         1 400      -0.091100
     37 H9          -1.0010    -0.9900    -0.9110 hn         1 400       0.325500
     38 H3           1.8710    -5.0620    -1.8880 hn         1 400       0.386000
     39 H6           4.5230    -3.4170    -1.1920 ha         1 400       0.160000
     40 H13         -4.8800    -3.0310    -0.9780 ha         1 400       0.119000
     41 H17         -2.2160     0.0620     0.3460 ha         1 400       0.119000
     42 H14         -6.7570    -1.5870    -0.5910 ha         1 400       0.116000
     43 H16         -4.0580     1.5150     0.7150 ha         1 400       0.116000
     44 H191        -5.6990     2.2400     1.6390 h1         1 400       0.047700
     45 H192        -6.0640     2.9320     0.0550 h1         1 400       0.047700
     46 H231        -7.6020     1.3800    -1.4960 h1         1 400       0.047700
     47 H232        -8.0620    -0.1700    -0.8000 h1         1 400       0.047700
     48 H201        -7.9710     2.2980     2.3600 h1         1 400       0.042200
     49 H202        -7.5020     3.8840     1.7410 h1         1 400       0.042200
     50 H221        -9.3790     0.8510     0.9320 h1         1 400       0.042200
     51 H222        -9.8640     1.4630    -0.6540 h1         1 400       0.042200
     52 H241        -9.7760     4.4970     1.3100 h1         1 400       0.033700
     53 H242       -10.7850     3.4670     0.2960 h1         1 400       0.033700
     54 H243       -10.3620     2.9470     1.9360 h1         1 400       0.033700
     55 H27          4.1790     0.3780     1.1880 hn         1 400       0.318500
     56 H28          7.0520     0.2790     1.1450 h1         1 400       0.074700
     57 H301         6.8410     2.3720     2.4740 hc         1 400       0.050700
     58 H302         5.1100     2.3510     2.2450 hc         1 400       0.050700
     59 H31          8.6250     1.3970    -0.1330 ha         1 400       0.111000
     60 H35          4.5390     2.6540    -0.3480 ha         1 400       0.111000
     61 H361         4.9860     0.1250     3.4560 hc         1 400       0.037033
     62 H362         6.7390     0.1400     3.6270 hc         1 400       0.037033
     63 H363         5.7590     1.3500     4.4500 hc         1 400       0.037033
     64 H32          9.2140     3.0100    -1.9040 ha         1 400       0.112500
     65 H33          7.4630     4.4510    -2.9010 ha         1 400       0.112000
     66 H34          5.1270     4.2640    -2.1090 ha         1 400       0.112500
@<TRIPOS>BOND
     1     1     2 2   
     2     1     4 1   
     3     1     9 1   
     4     2     3 1   
     5     3     5 1   
     6     3    38 1   
     7     4     5 2   
     8     4     8 1   
     9     5     6 1   
    10     6     7 2   
    11     6    39 1   
    12     7     8 1   
    13     7    25 1   
    14     9    10 1   
    15     9    37 1   
    16    10    11 1   
    17    10    12 2   
    18    11    13 ar  
    19    11    17 ar  
    20    13    14 ar  
    21    13    40 1   
    22    14    15 ar  
    23    14    42 1   
    24    15    16 ar  
    25    15    18 1   
    26    16    17 ar  
    27    16    43 1   
    28    17    41 1   
    29    18    19 1   
    30    18    23 1   
    31    19    20 1   
    32    19    44 1   
    33    19    45 1   
    34    20    21 1   
    35    20    48 1   
    36    20    49 1   
    37    21    22 1   
    38    21    24 1   
    39    22    23 1   
    40    22    50 1   
    41    22    51 1   
    42    23    46 1   
    43    23    47 1   
    44    24    52 1   
    45    24    53 1   
    46    24    54 1   
    47    25    26 2   
    48    25    27 1   
    49    27    28 1   
    50    27    55 1   
    51    28    29 1   
    52    28    30 1   
    53    28    56 1   
    54    29    31 ar  
    55    29    35 ar  
    56    30    36 1   
    57    30    57 1   
    58    30    58 1   
    59    31    32 ar  
    60    31    59 1   
    61    32    33 ar  
    62    32    64 1   
    63    33    34 ar  
    64    33    65 1   
    65    34    35 ar  
    66    34    66 1   
    67    35    60 1   
    68    36    61 1   
    69    36    62 1   
    70    36    63 1   
@<TRIPOS>SUBSTRUCTURE
     1 400         1 TEMP              0 ****  ****    0 ROOT
