@<TRIPOS>MOLECULE
400
   66    70     1     0     0
SMALL
No Charge or Current Charge


@<TRIPOS>ATOM
      1 C1           0.2500    -3.3000    -0.4820 cc         1 400       0.422900
      2 N2           0.3200    -4.6060    -0.7250 nd         1 400      -0.479800
      3 N3           1.7100    -4.8740    -0.7160 na         1 400       0.007800
      4 C4           1.5190    -2.7460    -0.3230 cc         1 400      -0.296000
      5 C5           2.4140    -3.7010    -0.4650 cd         1 400      -0.107000
      6 C6           3.7710    -3.3350    -0.3380 cd         1 400      -0.052000
      7 C7           3.8530    -1.9720    -0.0770 cc         1 400      -0.233600
      8 S8           2.2400    -1.1900     0.0010 ss         1 400       0.197000
      9 N9          -0.8950    -2.5480    -0.3890 ns         1 400      -0.482400
     10 C10         -2.2080    -2.9430    -0.5190 c          1 400       0.631700
     11 C11         -3.2490    -1.8510    -0.3580 ca         1 400      -0.204600
     12 O12         -2.5330    -4.1000    -0.7500 o          1 400      -0.554100
     13 C13         -4.6180    -2.1810    -0.4750 ca         1 400      -0.030000
     14 C14         -5.6090    -1.1950    -0.3320 ca         1 400      -0.190500
     15 C15         -5.2650     0.1400    -0.0710 ca         1 400       0.342000
     16 C16         -3.9040     0.4750     0.0490 ca         1 400      -0.190500
     17 C17         -2.9040    -0.5030    -0.0930 ca         1 400      -0.030000
     18 N18         -6.2810     1.1140     0.0690 nh         1 400      -0.794400
     19 C19         -6.0620     2.3560     0.8790 c6         1 400       0.204800
     20 C20         -7.4030     3.0120     1.3470 c6         1 400       0.152300
     21 N21         -8.3540     3.2580     0.2200 n3         1 400      -0.707600
     22 C22         -8.6040     1.9820    -0.5170 c6         1 400       0.152300
     23 C23         -7.2880     1.3050    -1.0240 c6         1 400       0.204800
     24 C24         -9.6020     3.9170     0.6600 c3         1 400       0.149100
     25 C25          5.1280    -1.2560     0.1140 c          1 400       0.637700
     26 O26          6.2230    -1.7970     0.0590 o          1 400      -0.586100
     27 N27          4.9770     0.0880     0.3610 ns         1 400      -0.503900
     28 C28          6.0700     1.0300     0.6010 c3         1 400       0.165000
     29 C29          5.8020     2.3300    -0.1560 ca         1 400      -0.099300
     30 C30          6.2970     1.2710     2.1150 c3         1 400      -0.090400
     31 C31          6.6370     2.7030    -1.2300 ca         1 400      -0.092500
     32 C32          6.3970     3.8940    -1.9380 ca         1 400      -0.111500
     33 C33          5.3190     4.7210    -1.5810 ca         1 400      -0.105000
     34 C34          4.4800     4.3550    -0.5170 ca         1 400      -0.111500
     35 C35          4.7180     3.1650     0.1930 ca         1 400      -0.092500
     36 C36          6.7420     0.0200     2.9020 c3         1 400      -0.091100
     37 H9          -0.7690    -1.5690    -0.1990 hn         1 400       0.325500
     38 H3           2.0920    -5.8050    -0.8760 hn         1 400       0.386000
     39 H6           4.6170    -4.0110    -0.4290 ha         1 400       0.160000
     40 H13         -4.9230    -3.2060    -0.6740 ha         1 400       0.119000
     41 H17         -1.8690    -0.1880     0.0050 ha         1 400       0.119000
     42 H14         -6.6540    -1.4780    -0.4140 ha         1 400       0.116000
     43 H16         -3.6070     1.5010     0.2410 ha         1 400       0.116000
     44 H191        -5.4620     2.1270     1.7720 h1         1 400       0.047700
     45 H192        -5.5010     3.0920     0.2850 h1         1 400       0.047700
     46 H231        -6.8540     1.9320    -1.8160 h1         1 400       0.047700
     47 H232        -7.5530     0.3430    -1.4860 h1         1 400       0.047700
     48 H201        -7.8680     2.3510     2.0940 h1         1 400       0.042200
     49 H202        -7.1670     3.9550     1.8600 h1         1 400       0.042200
     50 H221        -9.1310     1.2680     0.1340 h1         1 400       0.042200
     51 H222        -9.2570     2.1640    -1.3840 h1         1 400       0.042200
     52 H241        -9.3820     4.8730     1.1550 h1         1 400       0.033700
     53 H242       -10.2540     4.1250    -0.1990 h1         1 400       0.033700
     54 H243       -10.1540     3.2830     1.3660 h1         1 400       0.033700
     55 H27          4.0330     0.4460     0.3680 hn         1 400       0.318500
     56 H28          6.9950     0.5950     0.1970 h1         1 400       0.074700
     57 H301         7.0670     2.0440     2.2320 hc         1 400       0.050700
     58 H302         5.3820     1.6670     2.5700 hc         1 400       0.050700
     59 H31          7.4740     2.0710    -1.5180 ha         1 400       0.111000
     60 H35          4.0560     2.8930     1.0120 ha         1 400       0.111000
     61 H361         5.9580    -0.7470     2.8980 hc         1 400       0.037033
     62 H362         7.6520    -0.4100     2.4670 hc         1 400       0.037033
     63 H363         6.9520     0.2820     3.9460 hc         1 400       0.037033
     64 H32          7.0470     4.1750    -2.7640 ha         1 400       0.112500
     65 H33          5.1340     5.6420    -2.1300 ha         1 400       0.112000
     66 H34          3.6430     4.9920    -0.2410 ha         1 400       0.112500
@<TRIPOS>BOND
     1     1     2 2   
     2     1     4 1   
     3     1     9 1   
     4     2     3 1   
     5     3     5 1   
     6     3    38 1   
     7     4     5 2   
     8     4     8 1   
     9     5     6 1   
    10     6     7 2   
    11     6    39 1   
    12     7     8 1   
    13     7    25 1   
    14     9    10 1   
    15     9    37 1   
    16    10    11 1   
    17    10    12 2   
    18    11    13 ar  
    19    11    17 ar  
    20    13    14 ar  
    21    13    40 1   
    22    14    15 ar  
    23    14    42 1   
    24    15    16 ar  
    25    15    18 1   
    26    16    17 ar  
    27    16    43 1   
    28    17    41 1   
    29    18    19 1   
    30    18    23 1   
    31    19    20 1   
    32    19    44 1   
    33    19    45 1   
    34    20    21 1   
    35    20    48 1   
    36    20    49 1   
    37    21    22 1   
    38    21    24 1   
    39    22    23 1   
    40    22    50 1   
    41    22    51 1   
    42    23    46 1   
    43    23    47 1   
    44    24    52 1   
    45    24    53 1   
    46    24    54 1   
    47    25    26 2   
    48    25    27 1   
    49    27    28 1   
    50    27    55 1   
    51    28    29 1   
    52    28    30 1   
    53    28    56 1   
    54    29    31 ar  
    55    29    35 ar  
    56    30    36 1   
    57    30    57 1   
    58    30    58 1   
    59    31    32 ar  
    60    31    59 1   
    61    32    33 ar  
    62    32    64 1   
    63    33    34 ar  
    64    33    65 1   
    65    34    35 ar  
    66    34    66 1   
    67    35    60 1   
    68    36    61 1   
    69    36    62 1   
    70    36    63 1   
@<TRIPOS>SUBSTRUCTURE
     1 400         1 TEMP              0 ****  ****    0 ROOT
