@<TRIPOS>MOLECULE
401
   50    51     1     0     0
SMALL
No Charge or Current Charge


@<TRIPOS>ATOM
      1 O22          6.7930     0.0390    -0.9980 o          1 401      -0.735500
      2 O23          7.2970     0.1500     1.0900 o          1 401      -0.735500
      3 C1           6.6680    -0.3340     0.1590 c          1 401       0.716000
      4 C2           5.6730    -1.4840     0.4520 c3         1 401      -0.191700
      5 C3           6.3890    -2.7440     1.0100 c3         1 401      -0.046400
      6 C4           7.4670    -3.3230     0.0710 c3         1 401      -0.077100
      7 C5           4.5330    -1.0140     1.3940 c3         1 401      -0.006100
      8 C6           3.6840     0.0970     0.7870 ca         1 401      -0.071300
      9 C7           2.6980    -0.2090    -0.1680 ca         1 401      -0.067000
     10 C8           1.9040     0.8080    -0.7350 ca         1 401      -0.175300
     11 C9           2.0950     2.1490    -0.3370 ca         1 401       0.134100
     12 C10          3.0850     2.4560     0.6220 ca         1 401      -0.200000
     13 C11          3.8740     1.4350     1.1790 ca         1 401      -0.032000
     14 O30          1.2970     3.1260    -0.9000 os         1 401      -0.347100
     15 C21          1.4140     4.5160    -0.5500 c3         1 401       0.153900
     16 C12          0.8440     0.4380    -1.7630 c3         1 401       0.163300
     17 N24         -0.4460     0.2150    -1.1190 ns         1 401      -0.483900
     18 C13         -1.5870    -0.1850    -1.7770 c          1 401       0.621700
     19 O25         -1.5630    -0.3890    -2.9830 o          1 401      -0.578100
     20 C14         -2.8370    -0.3270    -0.9280 ca         1 401      -0.156600
     21 C15         -4.0190    -0.9020    -1.4550 ca         1 401       0.213000
     22 C16         -5.1740    -1.0310    -0.6660 ca         1 401      -0.119000
     23 C17         -5.1900    -0.5950     0.6750 ca         1 401      -0.165300
     24 C18         -4.0230    -0.0110     1.2030 ca         1 401      -0.090000
     25 C19         -2.8640     0.1200     0.4190 ca         1 401      -0.073000
     26 C20         -6.4570    -0.7270     1.5310 c3         1 401       0.357300
     27 F26         -4.0760    -1.3580    -2.7270 f          1 401      -0.152000
     28 F27         -7.2290    -1.7710     1.1520 f          1 401      -0.113667
     29 F28         -6.1740    -0.9120     2.8410 f          1 401      -0.113667
     30 F29         -7.2240     0.3830     1.4460 f          1 401      -0.113667
     31 H2           5.2100    -1.7750    -0.4990 hc         1 401       0.034700
     32 H3           6.8490    -2.5090     1.9780 hc         1 401       0.014700
     33 H3A          5.6430    -3.5260     1.2000 hc         1 401       0.014700
     34 H4           8.2820    -2.6060    -0.0850 hc         1 401       0.023033
     35 H4A          7.8960    -4.2350     0.5010 hc         1 401       0.023033
     36 H4B          7.0360    -3.5760    -0.9050 hc         1 401       0.023033
     37 H5           3.8870    -1.8700     1.6270 hc         1 401       0.028200
     38 H5A          4.9590    -0.6920     2.3520 hc         1 401       0.028200
     39 H7           2.5480    -1.2430    -0.4710 ha         1 401       0.102000
     40 H10          3.2590     3.4770     0.9490 ha         1 401       0.109000
     41 H11          4.6360     1.6830     1.9150 ha         1 401       0.140000
     42 H21          1.2210     4.6660     0.5200 h1         1 401       0.034033
     43 H21A         2.4170     4.8940    -0.7850 h1         1 401       0.034033
     44 H21B         0.6850     5.1120    -1.1130 h1         1 401       0.034033
     45 H12          0.7400     1.2360    -2.5100 h1         1 401       0.062200
     46 H12A         1.1410    -0.4770    -2.2910 h1         1 401       0.062200
     47 HN24        -0.5100     0.3640    -0.1220 hn         1 401       0.310500
     48 H16         -6.0610    -1.4760    -1.1110 ha         1 401       0.147000
     49 H18         -4.0080     0.3520     2.2300 ha         1 401       0.131000
     50 H19         -1.9970     0.5870     0.8790 ha         1 401       0.131000
@<TRIPOS>BOND
     1     1     3 1   
     2     2     3 1   
     3     3     4 1   
     4     4     5 1   
     5     4     7 1   
     6     4    31 1   
     7     5     6 1   
     8     5    32 1   
     9     5    33 1   
    10     6    34 1   
    11     6    35 1   
    12     6    36 1   
    13     7     8 1   
    14     7    37 1   
    15     7    38 1   
    16     8     9 ar  
    17     8    13 ar  
    18     9    10 ar  
    19     9    39 1   
    20    10    11 ar  
    21    10    16 1   
    22    11    12 ar  
    23    11    14 1   
    24    12    13 ar  
    25    12    40 1   
    26    13    41 1   
    27    14    15 1   
    28    15    42 1   
    29    15    43 1   
    30    15    44 1   
    31    16    17 1   
    32    16    45 1   
    33    16    46 1   
    34    17    18 1   
    35    17    47 1   
    36    18    19 2   
    37    18    20 1   
    38    20    21 ar  
    39    20    25 ar  
    40    21    22 ar  
    41    21    27 1   
    42    22    23 ar  
    43    22    48 1   
    44    23    24 ar  
    45    23    26 1   
    46    24    25 ar  
    47    24    49 1   
    48    25    50 1   
    49    26    28 1   
    50    26    29 1   
    51    26    30 1   
@<TRIPOS>SUBSTRUCTURE
     1 401         1 TEMP              0 ****  ****    0 ROOT
