@<TRIPOS>MOLECULE
401
   50    51     1     0     0
SMALL
abcg2


@<TRIPOS>ATOM
      1 O22          6.6900     0.4100    -1.1520 o          1 401      -0.735500
      2 O23          7.0110     0.9070     0.9940 o          1 401      -0.735500
      3 C1           6.6260     0.1600     0.0680 c          1 401       0.716000
      4 C2           6.0290    -1.1950     0.4930 c3         1 401      -0.191700
      5 C3           7.0740    -2.0500     1.2120 c3         1 401      -0.046400
      6 C4           8.3030    -2.3540     0.3650 c3         1 401      -0.077100
      7 C5           4.8070    -0.9880     1.3970 c3         1 401      -0.006100
      8 C6           3.7120    -0.1940     0.7430 ca         1 401      -0.071300
      9 C7           2.7710    -0.8120    -0.0810 ca         1 401      -0.067000
     10 C8           1.7660    -0.1070    -0.7250 ca         1 401      -0.175300
     11 C9           1.6870     1.2810    -0.5400 ca         1 401       0.134100
     12 C10          2.6110     1.9180     0.2810 ca         1 401      -0.200000
     13 C11          3.6090     1.1800     0.9080 ca         1 401      -0.032000
     14 O30          0.6900     1.9080    -1.1910 os         1 401      -0.347100
     15 C21          0.5090     3.2930    -0.9910 c3         1 401       0.153900
     16 C12          0.7600    -0.8240    -1.5850 c3         1 401       0.163300
     17 N24         -0.5740    -0.7390    -1.0250 ns         1 401      -0.483900
     18 C13         -1.6140    -0.1590    -1.6400 c          1 401       0.621700
     19 O25         -1.6110     0.2590    -2.7850 o          1 401      -0.578100
     20 C14         -2.8520    -0.0860    -0.7950 ca         1 401      -0.156600
     21 C15         -3.5200     1.1150    -0.6220 ca         1 401       0.213000
     22 C16         -4.6810     1.2180     0.1190 ca         1 401      -0.119000
     23 C17         -5.2020     0.0700     0.6980 ca         1 401      -0.165300
     24 C18         -4.5620    -1.1530     0.5360 ca         1 401      -0.090000
     25 C19         -3.3930    -1.2220    -0.2000 ca         1 401      -0.073000
     26 C20         -6.4770     0.1240     1.4830 c3         1 401       0.357300
     27 F26         -3.0140     2.2270    -1.1600 f          1 401      -0.152000
     28 F27         -7.4940    -0.4200     0.8000 f          1 401      -0.113667
     29 F28         -6.3770    -0.5580     2.6300 f          1 401      -0.113667
     30 F29         -6.8360     1.3710     1.7940 f          1 401      -0.113667
     31 H2           5.7020    -1.7340    -0.4050 hc         1 401       0.034700
     32 H3           7.3750    -1.5410     2.1320 hc         1 401       0.014700
     33 H3A          6.6090    -2.9910     1.5220 hc         1 401       0.014700
     34 H4           8.8460    -1.4460     0.1010 hc         1 401       0.023033
     35 H4A          8.9970    -3.0070     0.8970 hc         1 401       0.023033
     36 H4B          8.0270    -2.8550    -0.5650 hc         1 401       0.023033
     37 H5           4.4200    -1.9670     1.6960 hc         1 401       0.028200
     38 H5A          5.1270    -0.4870     2.3140 hc         1 401       0.028200
     39 H7           2.8200    -1.8870    -0.2250 ha         1 401       0.102000
     40 H10          2.5710     2.9860     0.4460 ha         1 401       0.109000
     41 H11          4.3280     1.6960     1.5320 ha         1 401       0.140000
     42 H21          0.3140     3.5320     0.0580 h1         1 401       0.034033
     43 H21A         1.3710     3.8730    -1.3290 h1         1 401       0.034033
     44 H21B        -0.3580     3.5780    -1.5820 h1         1 401       0.034033
     45 H12          0.7270    -0.4110    -2.5920 h1         1 401       0.062200
     46 H12A         1.0490    -1.8730    -1.6790 h1         1 401       0.062200
     47 HN24        -0.6760    -0.9970    -0.0560 hn         1 401       0.310500
     48 H16         -5.1480     2.1870     0.2340 ha         1 401       0.147000
     49 H18         -4.9610    -2.0570     0.9790 ha         1 401       0.131000
     50 H19         -2.9010    -2.1780    -0.3250 ha         1 401       0.131000
@<TRIPOS>BOND
     1     1     3 1   
     2     2     3 1   
     3     3     4 1   
     4     4     5 1   
     5     4     7 1   
     6     4    31 1   
     7     5     6 1   
     8     5    32 1   
     9     5    33 1   
    10     6    34 1   
    11     6    35 1   
    12     6    36 1   
    13     7     8 1   
    14     7    37 1   
    15     7    38 1   
    16     8     9 ar  
    17     8    13 ar  
    18     9    10 ar  
    19     9    39 1   
    20    10    11 ar  
    21    10    16 1   
    22    11    12 ar  
    23    11    14 1   
    24    12    13 ar  
    25    12    40 1   
    26    13    41 1   
    27    14    15 1   
    28    15    42 1   
    29    15    43 1   
    30    15    44 1   
    31    16    17 1   
    32    16    45 1   
    33    16    46 1   
    34    17    18 1   
    35    17    47 1   
    36    18    19 2   
    37    18    20 1   
    38    20    21 ar  
    39    20    25 ar  
    40    21    22 ar  
    41    21    27 1   
    42    22    23 ar  
    43    22    48 1   
    44    23    24 ar  
    45    23    26 1   
    46    24    25 ar  
    47    24    49 1   
    48    25    50 1   
    49    26    28 1   
    50    26    29 1   
    51    26    30 1   
@<TRIPOS>SUBSTRUCTURE
     1 401         1 TEMP              0 ****  ****    0 ROOT
