@<TRIPOS>MOLECULE
403
   53    55     1     0     0
SMALL
No Charge or Current Charge


@<TRIPOS>ATOM
      1 C1           0.6430    -2.8700    -0.6050 c3         1 403       0.076300
      2 C2          -0.9100    -3.0470    -0.5450 c          1 403       0.585100
      3 C3           1.2570    -2.5860     0.8000 c3         1 403       0.070300
      4 N4          -1.7190    -1.9770    -0.0930 n          1 403      -0.399800
      5 N5          -3.6050     0.2610     0.3360 nh         1 403      -0.782400
      6 C6           2.6940    -1.9870     0.6820 c          1 403       0.576100
      7 S8           5.6950     2.9650    -0.5940 ss         1 403       0.190000
      8 C9           5.7320     1.2110    -0.7780 cc         1 403      -0.214300
      9 O10         -1.4100    -4.1280    -0.8430 o          1 403      -0.602100
     10 C11         -3.1940    -2.1980     0.0460 c6         1 403       0.096500
     11 C12         -1.3460    -0.5550    -0.3950 c6         1 403       0.096500
     12 C13         -2.1440     0.5110     0.4040 c6         1 403       0.173300
     13 C14         -3.9530    -1.0950     0.8320 c6         1 403       0.173300
     14 C15          7.4370     3.0600    -0.8320 cc         1 403      -0.232000
     15 O17          3.6930    -2.6760     0.5070 o          1 403      -0.594100
     16 C18          7.0100     0.7710    -1.0110 cd         1 403      -0.123000
     17 C19          7.9730     1.8150    -1.0400 cd         1 403      -0.132000
     18 N20          2.7790    -0.6190     0.8550 ns         1 403      -0.497900
     19 O21          1.2880    -4.0220    -1.2140 oh         1 403      -0.647000
     20 O22          1.2280    -3.7920     1.6060 oh         1 403      -0.644000
     21 C23          4.4750     0.3860    -0.6850 c3         1 403      -0.021100
     22 C25          4.0210     0.1570     0.7710 c3         1 403       0.104000
     23 H1           0.8230    -1.9890    -1.2350 h1         1 403       0.070700
     24 H3           0.6460    -1.8190     1.2940 h1         1 403       0.068700
     25 C151        -4.5120     1.3440     0.4820 ca         1 403       0.273000
     26 H11         -3.6280    -2.2660    -0.9620 h1         1 403       0.062200
     27 H11A        -3.3770    -3.1620     0.5410 h1         1 403       0.062200
     28 H12         -0.2790    -0.3830    -0.2070 h1         1 403       0.062200
     29 H12A        -1.5150    -0.3780    -1.4670 h1         1 403       0.062200
     30 H13         -1.9000     1.5070     0.0080 h1         1 403       0.050700
     31 H13A        -1.8140     0.4900     1.4530 h1         1 403       0.050700
     32 H14         -3.6970    -1.1810     1.8990 h1         1 403       0.050700
     33 H14A        -5.0340    -1.2750     0.7360 h1         1 403       0.050700
     34 H15          7.9300     4.0230    -0.8020 h4         1 403       0.152000
     35 H18          7.2640    -0.2750    -1.1570 ha         1 403       0.134000
     36 H19          9.0330     1.6430    -1.2100 ha         1 403       0.136000
     37 HN20         1.9170    -0.1200     1.0440 hn         1 403       0.309500
     38 HO21         0.5610    -4.6640    -1.4070 ho         1 403       0.483000
     39 HO22         1.8200    -4.4350     1.1500 ho         1 403       0.482000
     40 H23          3.6680     0.8830    -1.2380 hc         1 403       0.053700
     41 H23A         4.6330    -0.5840    -1.1720 hc         1 403       0.053700
     42 H25          3.8600     1.1280     1.2580 h1         1 403       0.062700
     43 H25A         4.8130    -0.3670     1.3230 h1         1 403       0.062700
     44 C16         -6.3200     3.4960     0.8190 ca         1 403      -0.116000
     45 C17         -6.1460     2.5550     1.8460 ca         1 403      -0.090000
     46 C181        -5.2480     1.4860     1.6760 ca         1 403      -0.145000
     47 C191        -4.6950     2.3030    -0.5510 ca         1 403       0.108000
     48 C20         -5.5960     3.3690    -0.3770 ca         1 403      -0.090000
     49 Cl1         -3.8290     2.1830    -2.0900 cl         1 403      -0.201000
     50 H21         -7.0160     4.3230     0.9500 ha         1 403       0.121000
     51 H22         -6.7060     2.6530     2.7740 ha         1 403       0.119000
     52 H231        -5.1170     0.7720     2.4840 ha         1 403       0.120000
     53 H24         -5.7320     4.0960    -1.1740 ha         1 403       0.129000
@<TRIPOS>BOND
     1     1     2 1   
     2     1     3 1   
     3     1    19 1   
     4     1    23 1   
     5     2     4 1   
     6     2     9 2   
     7     3     6 1   
     8     3    20 1   
     9     3    24 1   
    10     4    10 1   
    11     4    11 1   
    12     5    12 1   
    13     5    13 1   
    14     5    25 1   
    15     6    15 2   
    16     6    18 1   
    17     7     8 1   
    18     7    14 1   
    19     8    16 2   
    20     8    21 1   
    21    10    13 1   
    22    10    26 1   
    23    10    27 1   
    24    11    12 1   
    25    11    28 1   
    26    11    29 1   
    27    12    30 1   
    28    12    31 1   
    29    13    32 1   
    30    13    33 1   
    31    14    17 2   
    32    14    34 1   
    33    16    17 1   
    34    16    35 1   
    35    17    36 1   
    36    18    22 1   
    37    18    37 1   
    38    19    38 1   
    39    20    39 1   
    40    21    22 1   
    41    21    40 1   
    42    21    41 1   
    43    22    42 1   
    44    22    43 1   
    45    25    46 ar  
    46    25    47 ar  
    47    44    45 ar  
    48    44    48 ar  
    49    44    50 1   
    50    45    46 ar  
    51    45    51 1   
    52    46    52 1   
    53    47    48 ar  
    54    47    49 1   
    55    48    53 1   
@<TRIPOS>SUBSTRUCTURE
     1 403         1 TEMP              0 ****  ****    0 ROOT
