@<TRIPOS>MOLECULE
403
   53    55     1     0     0
SMALL
bcc


@<TRIPOS>ATOM
      1 C1           0.6160    -2.3640    -0.3340 c3         1 403       0.053100
      2 C2          -0.8560    -2.7910    -0.4100 c          1 403       0.652100
      3 C3           0.8740    -1.6730     1.0250 c3         1 403       0.047100
      4 N4          -1.7980    -1.8600    -0.6170 n          1 403      -0.466800
      5 N5          -3.7610     0.0830    -0.0510 nh         1 403      -0.644000
      6 C6           2.3780    -1.4450     1.1810 c          1 403       0.643100
      7 S8           6.8640     2.0730     0.5930 ss         1 403      -0.099800
      8 C9           6.0790     1.2220    -0.6870 cc         1 403      -0.069400
      9 O10         -1.1090    -3.9790    -0.2470 o          1 403      -0.602100
     10 C11         -3.2090    -2.2100    -0.6090 c6         1 403       0.096500
     11 C12         -1.5700    -0.4630    -0.9420 c6         1 403       0.096500
     12 C13         -2.3490     0.4300     0.0060 c6         1 403       0.173300
     13 C14         -3.9710    -1.2980     0.3390 c6         1 403       0.173300
     14 C15          8.3870     1.9940    -0.1930 cc         1 403      -0.105100
     15 O17          3.0230    -2.1280     1.9630 o          1 403      -0.594100
     16 C18          6.9730     0.9020    -1.6650 cd         1 403      -0.141000
     17 C19          8.2960     1.3450    -1.3840 cd         1 403      -0.150000
     18 N20          2.9120    -0.5010     0.4040 ns         1 403      -0.564900
     19 O21          1.4210    -3.4940    -0.4660 oh         1 403      -0.584800
     20 O22          0.4020    -2.4500     2.0800 oh         1 403      -0.581800
     21 C23          4.6250     0.8940    -0.6250 c3         1 403      -0.021100
     22 C25          4.3300    -0.2010     0.3960 c3         1 403       0.104000
     23 H1           0.8600    -1.6740    -1.1480 h1         1 403       0.070700
     24 H3           0.3610    -0.7050     1.0460 h1         1 403       0.068700
     25 C151        -4.6490     1.0400     0.4530 ca         1 403       0.134600
     26 H11         -3.6090    -2.1040    -1.6210 h1         1 403       0.062200
     27 H11A        -3.3310    -3.2450    -0.3030 h1         1 403       0.062200
     28 H12         -0.5150    -0.2050    -0.9040 h1         1 403       0.062200
     29 H12A        -1.9090    -0.2790    -1.9660 h1         1 403       0.062200
     30 H13         -2.1960     1.4670    -0.2850 h1         1 403       0.050700
     31 H13A        -1.9590     0.3160     1.0290 h1         1 403       0.050700
     32 H14         -3.6400    -1.4990     1.3690 h1         1 403       0.050700
     33 H14A        -5.0330    -1.5380     0.2770 h1         1 403       0.050700
     34 H15          9.2610     2.4320     0.2640 h4         1 403       0.170000
     35 H18          6.6920     0.3650    -2.5610 ha         1 403       0.152000
     36 H19          9.1390     1.1860    -2.0420 ha         1 403       0.154000
     37 HN20         2.3020     0.0740    -0.1550 hn         1 403       0.309500
     38 HO21         0.8700    -4.2550    -0.2280 ho         1 403       0.444000
     39 HO22         1.1600    -2.9350     2.4360 ho         1 403       0.443000
     40 H23          4.0400     1.7860    -0.3830 hc         1 403       0.053700
     41 H23A         4.3060     0.5640    -1.6170 hc         1 403       0.053700
     42 H25          4.6520     0.1170     1.3910 h1         1 403       0.062700
     43 H25A         4.8970    -1.0990     0.1430 h1         1 403       0.062700
     44 C16         -6.4360     2.9990     1.3970 ca         1 403      -0.134000
     45 C17         -6.2200     1.8380     2.1230 ca         1 403      -0.108000
     46 C181        -5.3310     0.8790     1.6600 ca         1 403      -0.163000
     47 C191        -4.9070     2.2100    -0.2740 ca         1 403       0.016400
     48 C20         -5.7750     3.1840     0.1910 ca         1 403      -0.108000
     49 CL1         -4.1700     2.4350    -1.8280 cl         1 403      -0.109400
     50 H21         -7.1200     3.7560     1.7550 ha         1 403       0.139000
     51 H22         -6.7320     1.6800     3.0620 ha         1 403       0.137000
     52 H231        -5.1660    -0.0110     2.2530 ha         1 403       0.138000
     53 H24         -5.9480     4.0750    -0.3980 ha         1 403       0.147000
@<TRIPOS>BOND
     1     1     2 1   
     2     1     3 1   
     3     1    19 1   
     4     1    23 1   
     5     2     4 1   
     6     2     9 2   
     7     3     6 1   
     8     3    20 1   
     9     3    24 1   
    10     4    10 1   
    11     4    11 1   
    12     5    12 1   
    13     5    13 1   
    14     5    25 1   
    15     6    15 2   
    16     6    18 1   
    17     7     8 1   
    18     7    14 1   
    19     8    16 2   
    20     8    21 1   
    21    10    13 1   
    22    10    26 1   
    23    10    27 1   
    24    11    12 1   
    25    11    28 1   
    26    11    29 1   
    27    12    30 1   
    28    12    31 1   
    29    13    32 1   
    30    13    33 1   
    31    14    17 2   
    32    14    34 1   
    33    16    17 1   
    34    16    35 1   
    35    17    36 1   
    36    18    22 1   
    37    18    37 1   
    38    19    38 1   
    39    20    39 1   
    40    21    22 1   
    41    21    40 1   
    42    21    41 1   
    43    22    42 1   
    44    22    43 1   
    45    25    46 ar  
    46    25    47 ar  
    47    44    45 ar  
    48    44    48 ar  
    49    44    50 1   
    50    45    46 ar  
    51    45    51 1   
    52    46    52 1   
    53    47    48 ar  
    54    47    49 1   
    55    48    53 1   
@<TRIPOS>SUBSTRUCTURE
     1 403         1 TEMP              0 ****  ****    0 ROOT
