@<TRIPOS>MOLECULE
404
   52    54     1     0     0
SMALL
No Charge or Current Charge


@<TRIPOS>ATOM
      1 C1          -0.2980    -0.4520     0.1740 ca         1 404       0.441900
      2 C2           0.6870    -1.4460     0.1120 ca         1 404      -0.254200
      3 C3           1.9880    -1.0730     0.0890 ca         1 404       0.042700
      4 N4           2.4030     0.2050     0.1210 nb         1 404      -0.243000
      5 C5           1.3960     1.1060     0.1780 ca         1 404       0.412900
      6 N6           0.0670     0.8450     0.2110 nb         1 404      -0.328000
      7 N7           0.6280    -2.8310     0.0620 na         1 404      -0.044400
      8 N8           1.9310    -3.3660     0.0060 nc         1 404      -0.503100
      9 C9           2.7520    -2.2980     0.0230 cd         1 404       0.228300
     10 C10          4.2600    -2.4450    -0.0250 c3         1 404      -0.060000
     11 C11          4.8060    -3.1990     1.2090 c3         1 404      -0.084100
     12 C12          4.7340    -3.0910    -1.3480 c3         1 404      -0.084100
     13 N13         -1.6540    -0.7470     0.1930 nu         1 404      -0.936100
     14 C14         -2.7650     0.2120     0.2080 c3         1 404       0.279100
     15 C15         -4.0890    -0.5380     0.2030 ca         1 404      -0.120300
     16 C16         -4.7010    -0.9080     1.4170 ca         1 404      -0.094000
     17 C17         -5.9250    -1.6010     1.4120 ca         1 404      -0.113500
     18 C18         -6.5430    -1.9280     0.1940 ca         1 404      -0.100000
     19 C19         -5.9370    -1.5630    -1.0200 ca         1 404      -0.113500
     20 C20         -4.7140    -0.8710    -1.0160 ca         1 404      -0.094000
     21 N21          1.7940     2.4330     0.2130 nu         1 404      -0.928100
     22 C22          0.9560     3.6520     0.1940 c3         1 404       0.249500
     23 C23          0.7470     4.1530    -1.2630 c3         1 404      -0.094400
     24 C24         -0.0970     3.2190    -2.1590 c3         1 404      -0.088100
     25 C25          1.6080     4.7480     1.1010 c3         1 404       0.150600
     26 O26          2.9760     5.0220     0.7250 oh         1 404      -0.664000
     27 H10          4.6960    -1.4390     0.0050 hc         1 404       0.063700
     28 H11          4.4400    -4.2320     1.2330 hc         1 404       0.036700
     29 H11A         5.9030    -3.2230     1.1940 hc         1 404       0.036700
     30 H11B         4.4900    -2.7010     2.1340 hc         1 404       0.036700
     31 H12          5.8290    -3.1150    -1.3970 hc         1 404       0.036700
     32 H12A         4.3640    -4.1200    -1.4380 hc         1 404       0.036700
     33 H12B         4.3670    -2.5180    -2.2080 hc         1 404       0.036700
     34 HN13        -1.9040    -1.7320     0.1620 hn         1 404       0.493000
     35 H14         -2.7070     0.8510     1.1010 h1         1 404       0.061200
     36 H14A        -2.7120     0.8700    -0.6720 h1         1 404       0.061200
     37 H16         -4.2280    -0.6600     2.3650 ha         1 404       0.117000
     38 H17         -6.3930    -1.8840     2.3530 ha         1 404       0.116000
     39 H18         -7.4900    -2.4650     0.1900 ha         1 404       0.115000
     40 H19         -6.4140    -1.8180    -1.9640 ha         1 404       0.116000
     41 H20         -4.2490    -0.5930    -1.9610 ha         1 404       0.117000
     42 HN21         2.8010     2.5910     0.2370 hn         1 404       0.509000
     43 H22         -0.0320     3.4420     0.6310 h1         1 404       0.081700
     44 H23          0.2450     5.1270    -1.2260 hc         1 404       0.048200
     45 H23A         1.7210     4.3230    -1.7380 hc         1 404       0.048200
     46 H24         -0.2730     3.6870    -3.1350 hc         1 404       0.034367
     47 H24A         0.4180     2.2670    -2.3310 hc         1 404       0.034367
     48 H24B        -1.0700     3.0120    -1.6980 hc         1 404       0.034367
     49 H25          1.0060     5.6640     1.0420 h1         1 404       0.027200
     50 H25A         1.5720     4.4030     2.1430 h1         1 404       0.027200
     51 HO26         3.3110     5.7070     1.3440 ho         1 404       0.444000
     52 HN7         -0.2040    -3.4230     0.0640 hn         1 404       0.374000
@<TRIPOS>BOND
     1     1     2 ar  
     2     1     6 ar  
     3     1    13 1   
     4     2     3 ar  
     5     2     7 1   
     6     3     4 ar  
     7     3     9 1   
     8     4     5 ar  
     9     5     6 ar  
    10     5    21 1   
    11     7     8 1   
    12     7    52 1   
    13     8     9 2   
    14     9    10 1   
    15    10    11 1   
    16    10    12 1   
    17    10    27 1   
    18    11    28 1   
    19    11    29 1   
    20    11    30 1   
    21    12    31 1   
    22    12    32 1   
    23    12    33 1   
    24    13    14 1   
    25    13    34 1   
    26    14    15 1   
    27    14    35 1   
    28    14    36 1   
    29    15    16 ar  
    30    15    20 ar  
    31    16    17 ar  
    32    16    37 1   
    33    17    18 ar  
    34    17    38 1   
    35    18    19 ar  
    36    18    39 1   
    37    19    20 ar  
    38    19    40 1   
    39    20    41 1   
    40    21    22 1   
    41    21    42 1   
    42    22    23 1   
    43    22    25 1   
    44    22    43 1   
    45    23    24 1   
    46    23    44 1   
    47    23    45 1   
    48    24    46 1   
    49    24    47 1   
    50    24    48 1   
    51    25    26 1   
    52    25    49 1   
    53    25    50 1   
    54    26    51 1   
@<TRIPOS>SUBSTRUCTURE
     1 404         1 TEMP              0 ****  ****    0 ROOT
