@<TRIPOS>MOLECULE
404
   52    54     1     0     0
SMALL
abcg2


@<TRIPOS>ATOM
      1 C1          -0.2770    -0.5210     0.5340 ca         1 404       0.441900
      2 C2           0.7200    -1.5280     0.5110 ca         1 404      -0.254200
      3 C3           2.0350    -1.1240     0.3290 ca         1 404       0.042700
      4 N4           2.4170     0.1580     0.1670 nb         1 404      -0.243000
      5 C5           1.4140     1.0200     0.2070 ca         1 404       0.412900
      6 N6           0.1070     0.7300     0.3920 nb         1 404      -0.328000
      7 N7           0.7400    -2.8790     0.6320 na         1 404      -0.044400
      8 N8           1.9770    -3.3530     0.5440 nc         1 404      -0.503100
      9 C9           2.7890    -2.3320     0.3570 cd         1 404       0.228300
     10 C10          4.2680    -2.4790     0.1840 c3         1 404      -0.060000
     11 C11          4.7650    -3.8700     0.5560 c3         1 404      -0.084100
     12 C12          4.6700    -2.1090    -1.2460 c3         1 404      -0.084100
     13 N13         -1.5820    -0.8010     0.6780 nu         1 404      -0.936100
     14 C14         -2.6030     0.2230     0.7630 c3         1 404       0.279100
     15 C15         -3.9550    -0.3720     0.4770 ca         1 404      -0.120300
     16 C16         -4.8850    -0.5460     1.4960 ca         1 404      -0.094000
     17 C17         -6.1280    -1.1090     1.2310 ca         1 404      -0.113500
     18 C18         -6.4490    -1.5070    -0.0590 ca         1 404      -0.100000
     19 C19         -5.5230    -1.3390    -1.0830 ca         1 404      -0.113500
     20 C20         -4.2840    -0.7770    -0.8150 ca         1 404      -0.094000
     21 N21          1.7280     2.3320     0.0740 nu         1 404      -0.928100
     22 C22          0.7910     3.4220    -0.0850 c3         1 404       0.249500
     23 C23          0.7100     3.9040    -1.5360 c3         1 404      -0.094400
     24 C24          0.2300     2.8290    -2.5000 c3         1 404      -0.088100
     25 C25          1.1250     4.5460     0.8820 c3         1 404       0.150600
     26 O26          2.4070     5.0530     0.5810 oh         1 404      -0.664000
     27 H10          4.7440    -1.7540     0.8540 hc         1 404       0.063700
     28 H11          4.3260    -4.6350    -0.0860 hc         1 404       0.036700
     29 H11A         5.8480    -3.9250     0.4460 hc         1 404       0.036700
     30 H11B         4.5220    -4.1240     1.5880 hc         1 404       0.036700
     31 H12          5.7540    -2.1540    -1.3660 hc         1 404       0.036700
     32 H12A         4.2230    -2.7980    -1.9660 hc         1 404       0.036700
     33 H12B         4.3470    -1.0990    -1.4980 hc         1 404       0.036700
     34 HN13        -1.8490    -1.7390     0.9280 hn         1 404       0.493000
     35 H14         -2.6010     0.7000     1.7480 h1         1 404       0.061200
     36 H14A        -2.3680     1.0020     0.0360 h1         1 404       0.061200
     37 H16         -4.6360    -0.2400     2.5050 ha         1 404       0.117000
     38 H17         -6.8420    -1.2380     2.0340 ha         1 404       0.116000
     39 H18         -7.4150    -1.9460    -0.2690 ha         1 404       0.115000
     40 H19         -5.7700    -1.6430    -2.0920 ha         1 404       0.116000
     41 H20         -3.5670    -0.6470    -1.6170 ha         1 404       0.117000
     42 HN21         2.6970     2.5220    -0.1290 hn         1 404       0.509000
     43 H22         -0.1910     3.0440     0.2050 h1         1 404       0.081700
     44 H23          0.0250     4.7570    -1.5720 hc         1 404       0.048200
     45 H23A         1.6850     4.2800    -1.8580 hc         1 404       0.048200
     46 H24          0.1270     3.2310    -3.5090 hc         1 404       0.034367
     47 H24A         0.9270     1.9930    -2.5530 hc         1 404       0.034367
     48 H24B        -0.7410     2.4300    -2.2000 hc         1 404       0.034367
     49 H25          0.3530     5.3210     0.7970 h1         1 404       0.027200
     50 H25A         1.0790     4.1530     1.9060 h1         1 404       0.027200
     51 HO26         2.6350     5.7110     1.2440 ho         1 404       0.444000
     52 HN7         -0.0220    -3.5150     0.7940 hn         1 404       0.374000
@<TRIPOS>BOND
     1     1     2 ar  
     2     1     6 ar  
     3     1    13 1   
     4     2     3 ar  
     5     2     7 1   
     6     3     4 ar  
     7     3     9 1   
     8     4     5 ar  
     9     5     6 ar  
    10     5    21 1   
    11     7     8 1   
    12     7    52 1   
    13     8     9 2   
    14     9    10 1   
    15    10    11 1   
    16    10    12 1   
    17    10    27 1   
    18    11    28 1   
    19    11    29 1   
    20    11    30 1   
    21    12    31 1   
    22    12    32 1   
    23    12    33 1   
    24    13    14 1   
    25    13    34 1   
    26    14    15 1   
    27    14    35 1   
    28    14    36 1   
    29    15    16 ar  
    30    15    20 ar  
    31    16    17 ar  
    32    16    37 1   
    33    17    18 ar  
    34    17    38 1   
    35    18    19 ar  
    36    18    39 1   
    37    19    20 ar  
    38    19    40 1   
    39    20    41 1   
    40    21    22 1   
    41    21    42 1   
    42    22    23 1   
    43    22    25 1   
    44    22    43 1   
    45    23    24 1   
    46    23    44 1   
    47    23    45 1   
    48    24    46 1   
    49    24    47 1   
    50    24    48 1   
    51    25    26 1   
    52    25    49 1   
    53    25    50 1   
    54    26    51 1   
@<TRIPOS>SUBSTRUCTURE
     1 404         1 TEMP              0 ****  ****    0 ROOT
