@<TRIPOS>MOLECULE
405
   37    38     1     0     0
SMALL
abcg2


@<TRIPOS>ATOM
      1 F2           3.4240    23.4990    67.5020 f          1 405      -0.116000
      2 C15          3.9800    23.9690    66.3500 c3         1 405       0.348300
      3 F            2.9900    24.6210    65.7000 f          1 405      -0.116000
      4 F1           4.2770    22.8730    65.6120 f          1 405      -0.116000
      5 C12          5.1740    24.8320    66.6010 ca         1 405      -0.235300
      6 C11          6.4190    24.2470    66.8030 ca         1 405      -0.022000
      7 C10          7.5350    25.0290    67.0670 ca         1 405      -0.179000
      8 C13          5.0420    26.2190    66.6800 ca         1 405      -0.022000
      9 C14          6.1480    27.0050    66.9400 ca         1 405      -0.179000
     10 C9           7.4040    26.4180    67.1270 ca         1 405       0.173100
     11 O            8.4240    27.2810    67.3430 os         1 405      -0.350100
     12 C6           9.7680    26.7840    67.5100 c3         1 405       0.222600
     13 C7          10.7080    27.9670    67.2970 c3         1 405      -0.075400
     14 C8          10.6940    28.5470    65.8840 c3         1 405       0.158800
     15 N            9.5320    29.4150    65.6410 n8         1 405      -1.003200
     16 C3           9.9550    26.1500    68.8700 ca         1 405      -0.128300
     17 C2          10.7810    25.0360    69.0080 ca         1 405      -0.092000
     18 C1          11.0050    24.4740    70.2610 ca         1 405      -0.110500
     19 C4           9.3500    26.6930    70.0010 ca         1 405      -0.092000
     20 C5           9.5680    26.1300    71.2540 ca         1 405      -0.110500
     21 C           10.3970    25.0190    71.3870 ca         1 405      -0.100000
     22 H1           6.5300    23.1720    66.7520 ha         1 405       0.130000
     23 H2           8.4890    24.5490    67.2230 ha         1 405       0.132000
     24 H3           4.0780    26.6850    66.5290 ha         1 405       0.130000
     25 H4           6.0620    28.0820    66.9940 ha         1 405       0.132000
     26 H5           9.9630    26.0410    66.7310 h1         1 405       0.047700
     27 H6          11.7150    27.6080    67.5190 hc         1 405       0.067700
     28 H7          10.4740    28.7470    68.0270 hc         1 405       0.067700
     29 H8          10.7680    27.7190    65.1650 h1         1 405       0.027700
     30 H9          11.5910    29.1570    65.7550 h1         1 405       0.027700
     31 H10          9.5690    29.7710    64.6910 hn         1 405       0.400000
     32 H11          8.6800    28.8690    65.7130 hn         1 405       0.400000
     33 H13         11.2460    24.6040    68.1300 ha         1 405       0.118500
     34 H14         11.6460    23.6060    70.3550 ha         1 405       0.116000
     35 H15          8.7020    27.5540    69.9000 ha         1 405       0.118500
     36 H16          9.0900    26.5580    72.1260 ha         1 405       0.116000
     37 H17         10.5660    24.5810    72.3630 ha         1 405       0.116000
@<TRIPOS>BOND
     1     1     2 1   
     2     2     3 1   
     3     2     4 1   
     4     2     5 1   
     5     5     6 ar  
     6     5     8 ar  
     7     6     7 ar  
     8     6    22 1   
     9     7    10 ar  
    10     7    23 1   
    11     8     9 ar  
    12     8    24 1   
    13     9    10 ar  
    14     9    25 1   
    15    10    11 1   
    16    11    12 1   
    17    12    13 1   
    18    12    16 1   
    19    12    26 1   
    20    13    14 1   
    21    13    27 1   
    22    13    28 1   
    23    14    15 1   
    24    14    29 1   
    25    14    30 1   
    26    15    31 1   
    27    15    32 1   
    28    16    17 ar  
    29    16    19 ar  
    30    17    18 ar  
    31    17    33 1   
    32    18    21 ar  
    33    18    34 1   
    34    19    20 ar  
    35    19    35 1   
    36    20    21 ar  
    37    20    36 1   
    38    21    37 1   
@<TRIPOS>SUBSTRUCTURE
     1 405         1 TEMP              0 ****  ****    0 ROOT
