@<TRIPOS>MOLECULE
405
   37    38     1     0     0
SMALL
No Charge or Current Charge


@<TRIPOS>ATOM
      1 F2           3.5000    23.4160    67.7670 f          1 405      -0.116000
      2 C15          3.9560    23.8320    66.5650 c3         1 405       0.348300
      3 F            2.9250    24.4520    65.9450 f          1 405      -0.116000
      4 F1           4.2290    22.7230    65.8400 f          1 405      -0.116000
      5 C12          5.1780    24.7430    66.7180 ca         1 405      -0.235300
      6 C11          6.4780    24.1950    66.7580 ca         1 405      -0.022000
      7 C10          7.6000    25.0290    66.9100 ca         1 405      -0.179000
      8 C13          5.0200    26.1400    66.8460 ca         1 405      -0.022000
      9 C14          6.1440    26.9690    66.9980 ca         1 405      -0.179000
     10 C9           7.4350    26.4240    67.0350 ca         1 405       0.173100
     11 O            8.4940    27.2980    67.1830 os         1 405      -0.350100
     12 C6           9.8500    26.8610    67.4150 c3         1 405       0.222600
     13 C7          10.7810    28.0960    67.3270 c3         1 405      -0.075400
     14 C8          10.8840    28.7310    65.9220 c3         1 405       0.158800
     15 N            9.6760    29.4920    65.5590 n8         1 405      -1.003200
     16 C3           9.9440    26.1900    68.7890 ca         1 405      -0.128300
     17 C2          10.6300    24.9660    68.9320 ca         1 405      -0.092000
     18 C1          10.7220    24.3450    70.1890 ca         1 405      -0.110500
     19 C4           9.3570    26.7850    69.9260 ca         1 405      -0.092000
     20 C5           9.4490    26.1630    71.1830 ca         1 405      -0.110500
     21 C           10.1310    24.9420    71.3150 ca         1 405      -0.100000
     22 H1           6.6260    23.1200    66.6730 ha         1 405       0.130000
     23 H2           8.5840    24.5730    66.9270 ha         1 405       0.132000
     24 H3           4.0280    26.5880    66.8310 ha         1 405       0.130000
     25 H4           6.0120    28.0430    67.0940 ha         1 405       0.132000
     26 H5          10.1600    26.1510    66.6370 h1         1 405       0.047700
     27 H6          11.7880    27.7790    67.6240 hc         1 405       0.067700
     28 H7          10.4700    28.8530    68.0560 hc         1 405       0.067700
     29 H8          11.0430    27.9380    65.1770 h1         1 405       0.027700
     30 H9          11.7450    29.4130    65.8840 h1         1 405       0.027700
     31 H10          9.6790    29.6690    64.5470 hn         1 405       0.400000
     32 H11          8.8620    28.8800    65.7040 hn         1 405       0.400000
     33 H13         11.0940    24.4950    68.0680 ha         1 405       0.118500
     34 H14         11.2520    23.4000    70.2910 ha         1 405       0.116000
     35 H15          8.8250    27.7300    69.8350 ha         1 405       0.118500
     36 H16          8.9920    26.6270    72.0540 ha         1 405       0.116000
     37 H17         10.2020    24.4600    72.2880 ha         1 405       0.116000
@<TRIPOS>BOND
     1     1     2 1   
     2     2     3 1   
     3     2     4 1   
     4     2     5 1   
     5     5     6 ar  
     6     5     8 ar  
     7     6     7 ar  
     8     6    22 1   
     9     7    10 ar  
    10     7    23 1   
    11     8     9 ar  
    12     8    24 1   
    13     9    10 ar  
    14     9    25 1   
    15    10    11 1   
    16    11    12 1   
    17    12    13 1   
    18    12    16 1   
    19    12    26 1   
    20    13    14 1   
    21    13    27 1   
    22    13    28 1   
    23    14    15 1   
    24    14    29 1   
    25    14    30 1   
    26    15    31 1   
    27    15    32 1   
    28    16    17 ar  
    29    16    19 ar  
    30    17    18 ar  
    31    17    33 1   
    32    18    21 ar  
    33    18    34 1   
    34    19    20 ar  
    35    19    35 1   
    36    20    21 ar  
    37    20    36 1   
    38    21    37 1   
@<TRIPOS>SUBSTRUCTURE
     1 405         1 TEMP              0 ****  ****    0 ROOT
