@<TRIPOS>MOLECULE
407
   31    31     1     0     0
SMALL
No Charge or Current Charge


@<TRIPOS>ATOM
      1 C1          -3.4860     0.3450     0.7140 c          1 407       0.610100
      2 C2          -2.1800     1.1820     0.9880 c3         1 407       0.149500
      3 N3          -4.1010     0.5870    -0.5140 ns         1 407      -0.383400
      4 O4          -3.9520    -0.4560     1.5220 o          1 407      -0.562100
      5 O5          -5.4430     0.1110    -0.7880 oh         1 407      -0.419100
      6 C6          -2.2440     1.8970     2.3550 c3         1 407      -0.121100
      7 N7          -0.9170     0.3860     0.9360 n7         1 407      -0.881300
      8 S8          -0.5330    -0.4050    -0.4810 sy         1 407       1.168600
      9 O9          -0.9780    -1.7880    -0.3030 o          1 407      -0.530500
     10 O10         -0.9960     0.4540    -1.5720 o          1 407      -0.530500
     11 C18          1.2560    -0.3240    -0.3670 ca         1 407      -0.328500
     12 C19          1.9660     0.6900    -1.0450 ca         1 407       0.006000
     13 C20          3.3710     0.7560    -0.9520 ca         1 407      -0.136300
     14 C21          4.0540    -0.2020    -0.1750 ca         1 407       0.223000
     15 C22          3.3490    -1.2090     0.5000 ca         1 407      -0.170000
     16 C23          1.9500    -1.2740     0.4080 ca         1 407       0.005000
     17 F24          5.4010    -0.1580    -0.0720 f          1 407      -0.168000
     18 C25          4.1400     1.8500    -1.6850 c3         1 407      -0.044800
     19 H1          -2.1520     1.9710     0.2230 h1         1 407       0.071700
     20 H2          -3.7590     1.3420    -1.1090 hn         1 407       0.341500
     21 H3          -5.3550    -0.3500    -1.6560 ho         1 407       0.449000
     22 H4          -2.2640     1.1690     3.1750 hc         1 407       0.057033
     23 H5          -1.3760     2.5520     2.4950 hc         1 407       0.057033
     24 H6          -3.1480     2.5150     2.4220 hc         1 407       0.057033
     25 H7          -0.1040     0.9900     1.0520 hn         1 407       0.505000
     26 H8           1.4340     1.4280    -1.6450 ha         1 407       0.138000
     27 H9           3.8900    -1.9390     1.0960 ha         1 407       0.140000
     28 H10          1.4120    -2.0590     0.9390 ha         1 407       0.139000
     29 H11          4.7080     2.4690    -0.9800 hc         1 407       0.052367
     30 H12          4.8510     1.4190    -2.4000 hc         1 407       0.052367
     31 H13          3.4720     2.5160    -2.2450 hc         1 407       0.052367
@<TRIPOS>BOND
     1     1     2 1   
     2     1     3 1   
     3     1     4 2   
     4     2     6 1   
     5     2     7 1   
     6     2    19 1   
     7     3     5 1   
     8     3    20 1   
     9     5    21 1   
    10     6    22 1   
    11     6    23 1   
    12     6    24 1   
    13     7     8 1   
    14     7    25 1   
    15     8     9 2   
    16     8    10 2   
    17     8    11 1   
    18    11    12 ar  
    19    11    16 ar  
    20    12    13 ar  
    21    12    26 1   
    22    13    14 ar  
    23    13    18 1   
    24    14    15 ar  
    25    14    17 1   
    26    15    16 ar  
    27    15    27 1   
    28    16    28 1   
    29    18    29 1   
    30    18    30 1   
    31    18    31 1   
@<TRIPOS>SUBSTRUCTURE
     1 407         1 TEMP              0 ****  ****    0 ROOT
