@<TRIPOS>MOLECULE
407
   31    31     1     0     0
SMALL
bcc


@<TRIPOS>ATOM
      1 C1          -3.2980     0.7700     0.5060 c          1 407       0.677100
      2 C2          -1.7860     0.6550     0.3450 c3         1 407       0.149500
      3 N3          -3.9090     1.3620    -0.5280 ns         1 407      -0.450400
      4 O4          -3.8680     0.3440     1.4930 o          1 407      -0.562100
      5 O5          -5.2290     1.6770    -0.4570 oh         1 407      -0.380100
      6 C6          -1.0880     1.5150     1.3900 c3         1 407      -0.121100
      7 N7          -1.4600    -0.7620     0.4670 n7         1 407      -0.826100
      8 S8          -0.3450    -1.4620    -0.5130 sy         1 407       1.310200
      9 O9          -0.2680    -2.8490    -0.0900 o          1 407      -0.601300
     10 O10         -0.7100    -1.1260    -1.8790 o          1 407      -0.601300
     11 C18          1.2090    -0.6870    -0.1710 ca         1 407      -0.328500
     12 C19          1.6360     0.3700    -0.9640 ca         1 407      -0.012000
     13 C20          2.8210     1.0380    -0.6770 ca         1 407      -0.136300
     14 C21          3.5380     0.5900     0.4250 ca         1 407       0.187900
     15 C22          3.1350    -0.4640     1.2220 ca         1 407      -0.188000
     16 C23          1.9510    -1.1140     0.9230 ca         1 407      -0.013000
     17 F24          4.6840     1.2130     0.7250 f          1 407      -0.132900
     18 C25          3.3080     2.1800    -1.5140 c3         1 407      -0.044800
     19 H1          -1.4890     0.9880    -0.6530 h1         1 407       0.071700
     20 H2          -3.4080     1.7840    -1.2960 hn         1 407       0.341500
     21 H3          -5.7050     0.9420    -0.8680 ho         1 407       0.410000
     22 H4          -1.3640     1.2050     2.3970 hc         1 407       0.057033
     23 H5          -0.0060     1.4400     1.2920 hc         1 407       0.057033
     24 H6          -1.3610     2.5630     1.2680 hc         1 407       0.057033
     25 H7          -1.4460    -1.1200     1.4160 hn         1 407       0.449800
     26 H8           1.0540     0.6890    -1.8190 ha         1 407       0.156000
     27 H9           3.7400    -0.7750     2.0630 ha         1 407       0.158000
     28 H10          1.6250    -1.9420     1.5370 ha         1 407       0.157000
     29 H11          3.4020     3.0940    -0.9260 hc         1 407       0.052367
     30 H12          4.2860     1.9690    -1.9470 hc         1 407       0.052367
     31 H13          2.6170     2.3780    -2.3300 hc         1 407       0.052367
@<TRIPOS>BOND
     1     1     2 1   
     2     1     3 1   
     3     1     4 2   
     4     2     6 1   
     5     2     7 1   
     6     2    19 1   
     7     3     5 1   
     8     3    20 1   
     9     5    21 1   
    10     6    22 1   
    11     6    23 1   
    12     6    24 1   
    13     7     8 1   
    14     7    25 1   
    15     8     9 2   
    16     8    10 2   
    17     8    11 1   
    18    11    12 ar  
    19    11    16 ar  
    20    12    13 ar  
    21    12    26 1   
    22    13    14 ar  
    23    13    18 1   
    24    14    15 ar  
    25    14    17 1   
    26    15    16 ar  
    27    15    27 1   
    28    16    28 1   
    29    18    29 1   
    30    18    30 1   
    31    18    31 1   
@<TRIPOS>SUBSTRUCTURE
     1 407         1 TEMP              0 ****  ****    0 ROOT
