@<TRIPOS>MOLECULE
408
   37    38     1     0     0
SMALL
No Charge or Current Charge


@<TRIPOS>ATOM
      1 F            2.9760    24.6160    68.0170 f          1 408      -0.116333
      2 O            8.7790    26.7590    66.3890 os         1 408      -0.350100
      3 N           11.3440    30.0870    65.3540 n8         1 408      -1.002200
      4 C11          5.6920    25.4500    68.0090 ca         1 408      -0.022500
      5 C12          5.1020    24.7740    66.9190 ca         1 408      -0.235300
      6 C13          5.7680    24.7720    65.6750 ca         1 408      -0.022500
      7 C14          6.9930    25.4440    65.5250 ca         1 408      -0.177500
      8 C15          3.7720    24.0330    67.0920 c3         1 408       0.349300
      9 F2           3.9710    22.7560    67.4890 f          1 408      -0.116333
     10 F1           3.0570    23.9830    65.9440 f          1 408      -0.116333
     11 C10          6.9170    26.1210    67.8550 ca         1 408      -0.177500
     12 C9           7.5760    26.1170    66.6080 ca         1 408       0.174100
     13 C2           9.5630    27.3460    67.4480 c3         1 408       0.224600
     14 C1          10.7110    28.1420    66.7880 c3         1 408      -0.073400
     15 C           10.2170    29.3240    65.9290 c3         1 408       0.152800
     16 C3          10.0970    26.2440    68.3680 ca         1 408      -0.128300
     17 C8          10.6760    25.0730    67.8330 ca         1 408      -0.093000
     18 C7          11.1630    24.0680    68.6860 ca         1 408      -0.109500
     19 C6          11.0790    24.2240    70.0790 ca         1 408      -0.100000
     20 C5          10.5080    25.3890    70.6190 ca         1 408      -0.109500
     21 C4          10.0200    26.3950    69.7680 ca         1 408      -0.093000
     22 H1          10.9730    30.8890    64.8290 hn         1 408       0.394500
     23 H2          11.8770    30.5260    66.1150 hn         1 408       0.394500
     24 H4           5.2040    25.4570    68.9820 ha         1 408       0.129500
     25 H5           5.3430    24.2490    64.8200 ha         1 408       0.129500
     26 H6           7.4970    25.4390    64.5630 ha         1 408       0.131500
     27 H7           7.3350    26.6360    68.7130 ha         1 408       0.131500
     28 H8           8.9530    28.0510    68.0290 h1         1 408       0.049700
     29 H9          11.3130    27.4660    66.1700 hc         1 408       0.064700
     30 H10         11.3680    28.5220    67.5790 hc         1 408       0.064700
     31 H11          9.6100    30.0020    66.5460 h1         1 408       0.034700
     32 H12          9.5920    28.9500    65.1070 h1         1 408       0.034700
     33 H13         10.7460    24.9400    66.7560 ha         1 408       0.118000
     34 H14         11.6060    23.1670    68.2660 ha         1 408       0.116000
     35 H15         11.4560    23.4460    70.7390 ha         1 408       0.116000
     36 H16         10.4430    25.5120    71.6980 ha         1 408       0.116000
     37 H17          9.5820    27.2930    70.1990 ha         1 408       0.118000
@<TRIPOS>BOND
     1     1     8 1   
     2     2    12 1   
     3     2    13 1   
     4     3    15 1   
     5     3    22 1   
     6     3    23 1   
     7     4     5 ar  
     8     4    11 ar  
     9     4    24 1   
    10     5     6 ar  
    11     5     8 1   
    12     6     7 ar  
    13     6    25 1   
    14     7    12 ar  
    15     7    26 1   
    16     8     9 1   
    17     8    10 1   
    18    11    12 ar  
    19    11    27 1   
    20    13    14 1   
    21    13    16 1   
    22    13    28 1   
    23    14    15 1   
    24    14    29 1   
    25    14    30 1   
    26    15    31 1   
    27    15    32 1   
    28    16    17 ar  
    29    16    21 ar  
    30    17    18 ar  
    31    17    33 1   
    32    18    19 ar  
    33    18    34 1   
    34    19    20 ar  
    35    19    35 1   
    36    20    21 ar  
    37    20    36 1   
    38    21    37 1   
@<TRIPOS>SUBSTRUCTURE
     1 408         1 TEMP              0 ****  ****    0 ROOT
