@<TRIPOS>MOLECULE
408
   37    38     1     0     0
SMALL
abcg2


@<TRIPOS>ATOM
      1 F            3.1070    24.4950    68.0520 f          1 408      -0.116333
      2 O            8.8100    26.6390    66.3780 os         1 408      -0.350100
      3 N           11.2140    30.0130    65.4280 n8         1 408      -1.002200
      4 C11          5.7380    25.3670    67.9510 ca         1 408      -0.022500
      5 C12          5.1120    24.8390    66.8290 ca         1 408      -0.235300
      6 C13          5.7440    24.9150    65.5860 ca         1 408      -0.022500
      7 C14          6.9800    25.5180    65.4730 ca         1 408      -0.177500
      8 C15          3.7920    24.1490    66.9410 c3         1 408       0.349300
      9 F2           3.9140    22.7930    66.9830 f          1 408      -0.116333
     10 F1           2.9830    24.4100    65.8860 f          1 408      -0.116333
     11 C10          6.9820    25.9780    67.8470 ca         1 408      -0.177500
     12 C9           7.6080    26.0580    66.6020 ca         1 408       0.174100
     13 C2           9.5320    27.2430    67.4680 c3         1 408       0.224600
     14 C1          10.6310    28.0850    66.8310 c3         1 408      -0.073400
     15 C           10.1000    29.2290    65.9750 c3         1 408       0.152800
     16 C3          10.0980    26.2070    68.4130 ca         1 408      -0.128300
     17 C8          10.5250    24.9650    67.9480 ca         1 408      -0.093000
     18 C7          11.0890    24.0430    68.8230 ca         1 408      -0.109500
     19 C6          11.2360    24.3560    70.1720 ca         1 408      -0.100000
     20 C5          10.8120    25.5960    70.6410 ca         1 408      -0.109500
     21 C4          10.2420    26.5140    69.7650 ca         1 408      -0.093000
     22 H1          10.8550    30.7420    64.8210 hn         1 408       0.394500
     23 H2          11.6980    30.4900    66.1830 hn         1 408       0.394500
     24 H4           5.2600    25.3090    68.9200 ha         1 408       0.129500
     25 H5           5.2670    24.5050    64.7050 ha         1 408       0.129500
     26 H6           7.4780    25.5880    64.5150 ha         1 408       0.131500
     27 H7           7.4480    26.3750    68.7340 ha         1 408       0.131500
     28 H8           8.8500    27.9010    68.0150 h1         1 408       0.049700
     29 H9          11.2750    27.4350    66.2330 hc         1 408       0.064700
     30 H10         11.2440    28.4910    67.6400 hc         1 408       0.064700
     31 H11          9.4070    29.8310    66.5800 h1         1 408       0.034700
     32 H12          9.5270    28.8270    65.1380 h1         1 408       0.034700
     33 H13         10.4090    24.7170    66.9010 ha         1 408       0.118000
     34 H14         11.4140    23.0790    68.4520 ha         1 408       0.116000
     35 H15         11.6740    23.6370    70.8530 ha         1 408       0.116000
     36 H16         10.9170    25.8450    71.6890 ha         1 408       0.116000
     37 H17          9.9030    27.4750    70.1340 ha         1 408       0.118000
@<TRIPOS>BOND
     1     1     8 1   
     2     2    12 1   
     3     2    13 1   
     4     3    15 1   
     5     3    22 1   
     6     3    23 1   
     7     4     5 ar  
     8     4    11 ar  
     9     4    24 1   
    10     5     6 ar  
    11     5     8 1   
    12     6     7 ar  
    13     6    25 1   
    14     7    12 ar  
    15     7    26 1   
    16     8     9 1   
    17     8    10 1   
    18    11    12 ar  
    19    11    27 1   
    20    13    14 1   
    21    13    16 1   
    22    13    28 1   
    23    14    15 1   
    24    14    29 1   
    25    14    30 1   
    26    15    31 1   
    27    15    32 1   
    28    16    17 ar  
    29    16    21 ar  
    30    17    18 ar  
    31    17    33 1   
    32    18    19 ar  
    33    18    34 1   
    34    19    20 ar  
    35    19    35 1   
    36    20    21 ar  
    37    20    36 1   
    38    21    37 1   
@<TRIPOS>SUBSTRUCTURE
     1 408         1 TEMP              0 ****  ****    0 ROOT
