@<TRIPOS>MOLECULE
409
   47    49     1     0     0
SMALL
No Charge or Current Charge


@<TRIPOS>ATOM
      1 O8           2.1880    -1.2970    -0.0490 o          1 409      -0.531100
      2 C4           3.2590    -0.8040     0.2800 c          1 409       0.650100
      3 C3           4.2540    -1.5120     1.2710 c3         1 409       0.058500
      4 C2           5.0160    -2.6650     0.5390 c3         1 409       0.133300
      5 C1           6.3330    -3.0630     1.2400 c3         1 409      -0.134100
      6 O6           4.1910    -3.8350     0.4280 oh         1 409      -0.642000
      7 N7           3.6600    -1.9550     2.5930 n8         1 409      -0.994200
      8 N5           3.6560     0.4300    -0.1440 ns         1 409      -0.588300
      9 S9           2.8380     1.4640    -1.1710 sy         1 409       1.183300
     10 O10          3.6850     2.6590    -1.2550 o          1 409      -0.528000
     11 O11          2.4980     0.6800    -2.3640 o          1 409      -0.528000
     12 C12          1.3190     1.8850    -0.2970 ca         1 409      -0.291500
     13 C13          1.3160     2.9260     0.6520 ca         1 409      -0.015000
     14 C14          0.1330     3.2440     1.3360 ca         1 409      -0.132000
     15 C15         -1.0480     2.5270     1.0790 ca         1 409      -0.040000
     16 C16         -1.0730     1.4740     0.1310 cp         1 409      -0.059000
     17 C17          0.1320     1.1650    -0.5510 ca         1 409       0.022000
     18 C18         -2.3320     0.7090    -0.1400 cp         1 409      -0.006000
     19 C19         -2.6480     0.2590    -1.4440 ca         1 409      -0.115000
     20 C20         -3.8280    -0.4570    -1.7010 ca         1 409      -0.068000
     21 C21         -4.7260    -0.7420    -0.6500 ca         1 409      -0.180000
     22 C22         -4.4310    -0.3070     0.6650 ca         1 409       0.056000
     23 C23         -3.2450     0.4110     0.9010 ca         1 409      -0.090000
     24 C27         -5.9300    -1.4580    -0.8370 ca         1 409       0.412900
     25 N28         -6.3510    -1.9290    -2.0420 nv         1 409      -1.076900
     26 N26         -6.7670    -1.7250     0.1720 nb         1 409      -0.298000
     27 C25         -6.3990    -1.2710     1.3860 ca         1 409       0.174900
     28 N24         -5.2790    -0.5790     1.6800 nb         1 409      -0.215000
     29 H1           5.0090    -0.7510     1.5150 h1         1 409       0.076700
     30 H2           5.2810    -2.3030    -0.4660 h1         1 409       0.078700
     31 H3           6.1530    -3.4430     2.2530 hc         1 409       0.047367
     32 H4           6.8540    -3.8410     0.6690 hc         1 409       0.047367
     33 H5           7.0040    -2.1980     1.3150 hc         1 409       0.047367
     34 H6           4.3670    -4.3900     1.2180 ho         1 409       0.443000
     35 H7           2.9350    -2.6610     2.4050 hn         1 409       0.413000
     36 H8           4.3640    -2.4680     3.1370 hn         1 409       0.413000
     37 H10          4.5190     0.8300     0.1820 hn         1 409       0.342500
     38 H11          2.2240     3.4890     0.8630 ha         1 409       0.130000
     39 H12          0.1290     4.0500     2.0660 ha         1 409       0.121000
     40 H13         -1.9550     2.8010     1.6120 ha         1 409       0.123000
     41 H14          0.1400     0.3460    -1.2690 ha         1 409       0.151000
     42 H15         -1.9780     0.4790    -2.2720 ha         1 409       0.123000
     43 H16         -4.0300    -0.7840    -2.7180 ha         1 409       0.107000
     44 H17         -3.0220     0.7300     1.9160 ha         1 409       0.135000
     45 H18         -5.9400    -1.5430    -2.8870 hn         1 409       0.501000
     46 H19         -7.3130    -2.2530    -2.1180 hn         1 409       0.501000
     47 H20         -7.0730    -1.4840     2.2140 h5         1 409       0.043100
@<TRIPOS>BOND
     1     1     2 2   
     2     2     3 1   
     3     2     8 1   
     4     3     4 1   
     5     3     7 1   
     6     3    29 1   
     7     4     5 1   
     8     4     6 1   
     9     4    30 1   
    10     5    31 1   
    11     5    32 1   
    12     5    33 1   
    13     6    34 1   
    14     7    35 1   
    15     7    36 1   
    16     8     9 1   
    17     8    37 1   
    18     9    10 2   
    19     9    11 2   
    20     9    12 1   
    21    12    13 ar  
    22    12    17 ar  
    23    13    14 ar  
    24    13    38 1   
    25    14    15 ar  
    26    14    39 1   
    27    15    16 ar  
    28    15    40 1   
    29    16    17 ar  
    30    16    18 1   
    31    17    41 1   
    32    18    19 ar  
    33    18    23 ar  
    34    19    20 ar  
    35    19    42 1   
    36    20    21 ar  
    37    20    43 1   
    38    21    22 ar  
    39    21    24 ar  
    40    22    23 ar  
    41    22    28 ar  
    42    23    44 1   
    43    24    25 1   
    44    24    26 ar  
    45    25    45 1   
    46    25    46 1   
    47    26    27 ar  
    48    27    28 ar  
    49    27    47 1   
@<TRIPOS>SUBSTRUCTURE
     1 409         1 TEMP              0 ****  ****    0 ROOT
