@<TRIPOS>MOLECULE
409
   47    49     1     0     0
SMALL
bcc


@<TRIPOS>ATOM
      1 O8           2.0620    -1.3890     0.2180 o          1 409      -0.531100
      2 C4           3.1390    -0.9300     0.5090 c          1 409       0.717100
      3 C3           4.1110    -1.5780     1.4820 c3         1 409       0.058500
      4 C2           5.3250    -2.1050     0.6750 c3         1 409       0.110100
      5 C1           6.2980    -2.8620     1.5600 c3         1 409      -0.134100
      6 O6           4.9040    -2.8720    -0.4330 oh         1 409      -0.579800
      7 N7           3.3930    -2.5460     2.2750 n8         1 409      -0.883800
      8 N5           3.5990     0.2410    -0.0480 ns         1 409      -0.655300
      9 S9           2.7630     1.1020    -1.2190 sy         1 409       1.324900
     10 O10          3.6070     2.2550    -1.4720 o          1 409      -0.598800
     11 O11          2.4030     0.2100    -2.2990 o          1 409      -0.598800
     12 C12          1.2960     1.6380    -0.3920 ca         1 409      -0.291500
     13 C13          1.3820     2.7270     0.4650 ca         1 409      -0.033000
     14 C14          0.2330     3.1420     1.1170 ca         1 409      -0.150000
     15 C15         -0.9690     2.4820     0.9080 ca         1 409      -0.058000
     16 C16         -1.0510     1.3920     0.0420 cp         1 409      -0.059000
     17 C17          0.1030     0.9710    -0.6160 ca         1 409       0.004000
     18 C18         -2.3310     0.6880    -0.1710 cp         1 409      -0.006000
     19 C19         -2.6770     0.2110    -1.4540 ca         1 409      -0.133000
     20 C20         -3.8630    -0.4440    -1.6600 ca         1 409      -0.086000
     21 C21         -4.7540    -0.6560    -0.5950 ca         1 409      -0.310600
     22 C22         -4.4210    -0.1890     0.6910 ca         1 409       0.449600
     23 C23         -3.1990     0.4840     0.8780 ca         1 409      -0.173300
     24 C27         -6.0180    -1.3350    -0.7080 ca         1 409       0.741200
     25 N28         -6.4490    -1.8190    -1.8720 nv         1 409      -0.966500
     26 N26         -6.7880    -1.5030     0.3550 nb         1 409      -0.824000
     27 C25         -6.3490    -1.0140     1.5210 ca         1 409       0.700900
     28 N24         -5.2390    -0.3770     1.7620 nb         1 409      -0.741000
     29 H1           4.4880    -0.8020     2.1560 h1         1 409       0.076700
     30 H2           5.8470    -1.2410     0.2520 h1         1 409       0.078700
     31 H3           5.8590    -3.7890     1.9360 hc         1 409       0.047367
     32 H4           7.1960    -3.1230     1.0010 hc         1 409       0.047367
     33 H5           6.6000    -2.2630     2.4200 hc         1 409       0.047367
     34 H6           4.6250    -3.7410    -0.1270 ho         1 409       0.404000
     35 H7           3.0820    -3.3310     1.7180 hn         1 409       0.357800
     36 H8           3.9910    -2.9120     3.0030 hn         1 409       0.357800
     37 H10          4.4550     0.6730     0.2790 hn         1 409       0.342500
     38 H11          2.3170     3.2470     0.6250 ha         1 409       0.148000
     39 H12          0.2710     3.9930     1.7830 ha         1 409       0.139000
     40 H13         -1.8590     2.8350     1.4130 ha         1 409       0.141000
     41 H14          0.0710     0.1180    -1.2790 ha         1 409       0.169000
     42 H15         -2.0140     0.3820    -2.2920 ha         1 409       0.141000
     43 H16         -4.0960    -0.7820    -2.6610 ha         1 409       0.125000
     44 H17         -2.9520     0.8140     1.8800 ha         1 409       0.153000
     45 H18         -5.9470    -1.7060    -2.7330 hn         1 409       0.445800
     46 H19         -7.3420    -2.2810    -1.9150 hn         1 409       0.445800
     47 H20         -7.0120    -1.1750     2.3660 h5         1 409       0.043100
@<TRIPOS>BOND
     1     1     2 2   
     2     2     3 1   
     3     2     8 1   
     4     3     4 1   
     5     3     7 1   
     6     3    29 1   
     7     4     5 1   
     8     4     6 1   
     9     4    30 1   
    10     5    31 1   
    11     5    32 1   
    12     5    33 1   
    13     6    34 1   
    14     7    35 1   
    15     7    36 1   
    16     8     9 1   
    17     8    37 1   
    18     9    10 2   
    19     9    11 2   
    20     9    12 1   
    21    12    13 ar  
    22    12    17 ar  
    23    13    14 ar  
    24    13    38 1   
    25    14    15 ar  
    26    14    39 1   
    27    15    16 ar  
    28    15    40 1   
    29    16    17 ar  
    30    16    18 1   
    31    17    41 1   
    32    18    19 ar  
    33    18    23 ar  
    34    19    20 ar  
    35    19    42 1   
    36    20    21 ar  
    37    20    43 1   
    38    21    22 ar  
    39    21    24 ar  
    40    22    23 ar  
    41    22    28 ar  
    42    23    44 1   
    43    24    25 1   
    44    24    26 ar  
    45    25    45 1   
    46    25    46 1   
    47    26    27 ar  
    48    27    28 ar  
    49    27    47 1   
@<TRIPOS>SUBSTRUCTURE
     1 409         1 TEMP              0 ****  ****    0 ROOT
