@<TRIPOS>MOLECULE
40A
   38    39     1     0     0
SMALL
No Charge or Current Charge


@<TRIPOS>ATOM
      1 C           -3.4610    -1.8450     0.7660 c          1 40A       0.699000
      2 N1           5.1250    -0.0600     1.4320 nb         1 40A      -0.318000
      3 C2           4.0230     0.0500     2.2110 ca         1 40A       0.160900
      4 N3           2.7370    -0.1190     1.8220 nb         1 40A      -0.195000
      5 C4           2.5510    -0.4290     0.5220 ca         1 40A       0.124500
      6 C5           3.6010    -0.5650    -0.3550 ca         1 40A      -0.090600
      7 C6           4.9080    -0.3720     0.1450 ca         1 40A       0.435900
      8 N6           6.0160    -0.4790    -0.6350 nv         1 40A      -1.075900
      9 N7           3.1860    -0.8800    -1.6490 nc         1 40A      -0.586100
     10 C8           1.8450    -0.9280    -1.5130 cd         1 40A       0.437700
     11 N9           1.4100    -0.6630    -0.2020 na         1 40A      -0.241300
     12 N2          -2.1830     3.3690    -0.4630 n8         1 40A      -0.974200
     13 O1          -2.7160    -2.7580     0.4440 o          1 40A      -0.721500
     14 C1          -3.4170     2.6100    -0.1760 c3         1 40A       0.134500
     15 C2M         -4.6260     3.3550    -0.7740 c3         1 40A      -0.128100
     16 C3          -3.3170     1.1450    -0.6870 c3         1 40A       0.109000
     17 N4          -2.3130     0.3270     0.0430 n          1 40A      -0.340800
     18 C9          -2.8240    -0.4960     1.1820 c3         1 40A      -0.066000
     19 C7          -0.9710     0.2580    -0.4130 c          1 40A       0.614100
     20 O7          -0.6140     0.9280    -1.3790 o          1 40A      -0.650100
     21 C10          0.0320    -0.6400     0.3480 c3         1 40A      -0.014400
     22 H2           4.1860     0.3020     3.2570 h5         1 40A       0.034100
     23 H8           1.1370    -1.1510    -2.3030 h5         1 40A       0.076800
     24 H22         -3.5430     2.5680     0.9160 h1         1 40A       0.060700
     25 H13         -4.3000     0.6700    -0.5670 h1         1 40A       0.058700
     26 H23         -3.0970     1.1400    -1.7620 h1         1 40A       0.058700
     27 H15         -3.5880     0.0870     1.7140 h1         1 40A       0.035700
     28 H25         -2.0280    -0.6980     1.9080 h1         1 40A       0.035700
     29 HN6          5.8640    -0.4960    -1.6410 hn         1 40A       0.494500
     30 HN6A         6.8780    -0.0500    -0.3090 hn         1 40A       0.494500
     31 H18         -0.3630    -1.6620     0.3450 h1         1 40A       0.101200
     32 H28          0.0600    -0.2900     1.3860 h1         1 40A       0.101200
     33 H2M         -4.6900     4.3760    -0.3780 hc         1 40A       0.029367
     34 H2MA        -4.5530     3.4100    -1.8680 hc         1 40A       0.029367
     35 H2MB        -5.5580     2.8370    -0.5200 hc         1 40A       0.029367
     36 OXT         -4.6800    -1.9280     0.7480 o          1 40A      -0.721500
     37 HN1         -1.4540     2.6890    -0.7260 hn         1 40A       0.383500
     38 HNXT        -2.3200     3.9030    -1.3280 hn         1 40A       0.383500
@<TRIPOS>BOND
     1     1    13 1   
     2     1    18 1   
     3     1    36 1   
     4     2     3 ar  
     5     2     7 ar  
     6     3     4 ar  
     7     3    22 1   
     8     4     5 ar  
     9     5     6 ar  
    10     5    11 1   
    11     6     7 ar  
    12     6     9 1   
    13     7     8 1   
    14     8    29 1   
    15     8    30 1   
    16     9    10 2   
    17    10    11 1   
    18    10    23 1   
    19    11    21 1   
    20    12    14 1   
    21    12    37 1   
    22    12    38 1   
    23    14    15 1   
    24    14    16 1   
    25    14    24 1   
    26    15    33 1   
    27    15    34 1   
    28    15    35 1   
    29    16    17 1   
    30    16    25 1   
    31    16    26 1   
    32    17    18 1   
    33    17    19 1   
    34    18    27 1   
    35    18    28 1   
    36    19    20 2   
    37    19    21 1   
    38    21    31 1   
    39    21    32 1   
@<TRIPOS>SUBSTRUCTURE
     1 40A         1 TEMP              0 ****  ****    0 ROOT
