@<TRIPOS>MOLECULE
40A
   38    39     1     0     0
SMALL
bcc


@<TRIPOS>ATOM
      1 C           -3.3740    -1.8630     0.4490 c          1 40A       0.909600
      2 N1           4.6220     0.7820     0.9760 nb         1 40A      -0.844000
      3 C2           3.5170     0.9910     1.6880 ca         1 40A       0.686900
      4 N3           2.3180     0.4640     1.5180 nb         1 40A      -0.721000
      5 C4           2.2930    -0.3760     0.4850 ca         1 40A       0.452800
      6 C5           3.3570    -0.6960    -0.3460 ca         1 40A      -0.221200
      7 C6           4.5810    -0.0650    -0.0580 ca         1 40A       0.764200
      8 N6           5.6940    -0.2900    -0.7620 nv         1 40A      -0.965500
      9 N7           2.9690    -1.5920    -1.3080 nc         1 40A      -0.586100
     10 C8           1.7090    -1.8000    -1.0580 cd         1 40A       0.437700
     11 N9           1.2460    -1.1130     0.0250 na         1 40A      -0.212000
     12 N2          -1.9230     3.1780     0.2730 n8         1 40A      -0.863800
     13 O1          -3.0230    -2.2010    -0.6940 o          1 40A      -0.826800
     14 C1          -3.1900     2.5340    -0.0370 c3         1 40A       0.134500
     15 C2M         -4.1390     3.3890    -0.8740 c3         1 40A      -0.128100
     16 C3          -2.9380     1.2100    -0.7540 c3         1 40A       0.109000
     17 N4          -2.1290     0.2840     0.0130 n          1 40A      -0.407800
     18 C9          -2.8360    -0.5150     0.9890 c3         1 40A      -0.066000
     19 C7          -0.8580     0.0550    -0.3400 c          1 40A       0.681100
     20 O7          -0.2770     0.6360    -1.2450 o          1 40A      -0.650100
     21 C10         -0.1170    -1.0180     0.4610 c3         1 40A      -0.043700
     22 H2           3.6210     1.6880     2.5140 h5         1 40A       0.034100
     23 H8           1.0620    -2.4570    -1.6190 h5         1 40A       0.076800
     24 H22         -3.6820     2.3180     0.9180 h1         1 40A       0.060700
     25 H13         -3.8950     0.7290    -0.9750 h1         1 40A       0.058700
     26 H23         -2.4560     1.4020    -1.7130 h1         1 40A       0.058700
     27 H15         -3.6730     0.0770     1.3650 h1         1 40A       0.035700
     28 H25         -2.2130    -0.7050     1.8660 h1         1 40A       0.035700
     29 HN6          5.6670    -0.8330    -1.6070 hn         1 40A       0.439300
     30 HN6A         6.5190     0.2560    -0.5810 hn         1 40A       0.439300
     31 H18         -0.6020    -1.9850     0.3300 h1         1 40A       0.101200
     32 H28         -0.1210    -0.7920     1.5290 h1         1 40A       0.101200
     33 H2M         -4.3600     4.3290    -0.3670 hc         1 40A       0.029367
     34 H2MA        -3.6910     3.6290    -1.8420 hc         1 40A       0.029367
     35 H2MB        -5.0860     2.8800    -1.0610 hc         1 40A       0.029367
     36 OXT         -4.1040    -2.4860     1.2420 o          1 40A      -0.826800
     37 HN1         -1.4430     3.4090    -0.5900 hn         1 40A       0.328300
     38 HNXT        -2.1040     4.0620     0.7320 hn         1 40A       0.328300
@<TRIPOS>BOND
     1     1    13 1   
     2     1    18 1   
     3     1    36 1   
     4     2     3 ar  
     5     2     7 ar  
     6     3     4 ar  
     7     3    22 1   
     8     4     5 ar  
     9     5     6 ar  
    10     5    11 1   
    11     6     7 ar  
    12     6     9 1   
    13     7     8 1   
    14     8    29 1   
    15     8    30 1   
    16     9    10 2   
    17    10    11 1   
    18    10    23 1   
    19    11    21 1   
    20    12    14 1   
    21    12    37 1   
    22    12    38 1   
    23    14    15 1   
    24    14    16 1   
    25    14    24 1   
    26    15    33 1   
    27    15    34 1   
    28    15    35 1   
    29    16    17 1   
    30    16    25 1   
    31    16    26 1   
    32    17    18 1   
    33    17    19 1   
    34    18    27 1   
    35    18    28 1   
    36    19    20 2   
    37    19    21 1   
    38    21    31 1   
    39    21    32 1   
@<TRIPOS>SUBSTRUCTURE
     1 40A         1 TEMP              0 ****  ****    0 ROOT
