@<TRIPOS>MOLECULE
40B
   42    44     1     0     0
SMALL
No Charge or Current Charge


@<TRIPOS>ATOM
      1 OAD         -4.9630     0.4670     2.4920 o          1 40B      -0.873167
      2 PBC         -3.9750    -0.4410     1.8290 p5         1 40B       1.256000
      3 OAE         -2.9930    -0.8460     2.8830 o          1 40B      -0.873167
      4 OAA         -4.6640    -1.6690     1.3330 o          1 40B      -0.873167
      5 CBB         -3.0060     0.4880     0.5030 c3         1 40B      -0.171700
      6 PBD         -4.2160     0.4570    -0.9320 p5         1 40B       1.256000
      7 OAF         -3.7210     1.5340    -1.8450 o          1 40B      -0.873167
      8 OAG         -4.1700    -0.8320    -1.6870 o          1 40B      -0.873167
      9 OAB         -5.6190     0.7950    -0.5510 o          1 40B      -0.873167
     10 OAC         -2.6960     1.9040     0.8630 oh         1 40B      -0.709000
     11 CAU         -1.6900    -0.2520     0.1160 ca         1 40B       0.027700
     12 CAR         -0.4610     0.4420    -0.0470 ca         1 40B      -0.072000
     13 CAL         -1.6790    -1.6520    -0.0970 ca         1 40B      -0.035000
     14 CAJ         -0.4970    -2.3260    -0.4420 ca         1 40B      -0.152000
     15 CAM          0.7030    -1.6200    -0.5870 ca         1 40B      -0.188000
     16 CAV          0.7460    -0.2200    -0.3970 cp         1 40B      -0.102000
     17 CAW          2.0280     0.5430    -0.5600 cp         1 40B       0.049000
     18 CBA          3.2710    -0.0220    -0.1780 ca         1 40B      -0.125000
     19 CAN          2.0410     1.8520    -1.1010 ca         1 40B      -0.151000
     20 CAK          3.2430     2.5610    -1.2510 ca         1 40B      -0.125000
     21 CAQ          4.4580     1.9780    -0.8620 ca         1 40B      -0.186000
     22 CAZ          4.5010     0.6710    -0.3170 cp         1 40B      -0.057000
     23 CAY          5.7990     0.0440     0.1000 cp         1 40B      -0.076000
     24 CAP          6.0160    -1.3530    -0.0300 ca         1 40B      -0.124500
     25 CAI          7.2320    -1.9410     0.3610 ca         1 40B      -0.125500
     26 CAH          8.2580    -1.1450     0.8910 ca         1 40B      -0.268000
     27 CAO          8.0690     0.2380     1.0310 ca         1 40B      -0.125500
     28 CAX          6.8540     0.8250     0.6390 ca         1 40B      -0.124500
     29 H5          -2.8870     2.4260     0.0460 ho         1 40B       0.476000
     30 H6          -0.4190     1.5140     0.1110 ha         1 40B       0.111000
     31 H7          -2.5910    -2.2330    -0.0080 ha         1 40B       0.172000
     32 H8          -0.5150    -3.4010    -0.6020 ha         1 40B       0.052000
     33 H9           1.6020    -2.1620    -0.8680 ha         1 40B       0.048000
     34 H10          3.2760    -1.0140     0.2620 ha         1 40B       0.106000
     35 H11          1.1120     2.3160    -1.4220 ha         1 40B       0.129000
     36 H12          3.2330     3.5630    -1.6740 ha         1 40B       0.064000
     37 H13          5.3770     2.5410    -0.9990 ha         1 40B       0.063000
     38 H14          5.2400    -1.9870    -0.4500 ha         1 40B       0.092000
     39 H15          7.3770    -3.0120     0.2490 ha         1 40B       0.056000
     40 H16          9.1980    -1.6000     1.1940 ha         1 40B       0.052000
     41 H17          8.8620     0.8560     1.4440 ha         1 40B       0.056000
     42 H18          6.7250     1.8970     0.7670 ha         1 40B       0.092000
@<TRIPOS>BOND
     1     1     2 1   
     2     2     3 1   
     3     2     4 1   
     4     2     5 1   
     5     5     6 1   
     6     5    10 1   
     7     5    11 1   
     8     6     7 1   
     9     6     8 1   
    10     6     9 1   
    11    10    29 1   
    12    11    12 ar  
    13    11    13 ar  
    14    12    16 ar  
    15    12    30 1   
    16    13    14 ar  
    17    13    31 1   
    18    14    15 ar  
    19    14    32 1   
    20    15    16 ar  
    21    15    33 1   
    22    16    17 1   
    23    17    18 ar  
    24    17    19 ar  
    25    18    22 ar  
    26    18    34 1   
    27    19    20 ar  
    28    19    35 1   
    29    20    21 ar  
    30    20    36 1   
    31    21    22 ar  
    32    21    37 1   
    33    22    23 1   
    34    23    24 ar  
    35    23    28 ar  
    36    24    25 ar  
    37    24    38 1   
    38    25    26 ar  
    39    25    39 1   
    40    26    27 ar  
    41    26    40 1   
    42    27    28 ar  
    43    27    41 1   
    44    28    42 1   
@<TRIPOS>SUBSTRUCTURE
     1 40B         1 TEMP              0 ****  ****    0 ROOT
