@<TRIPOS>MOLECULE
40B
   42    44     1     0     0
SMALL
abcg2


@<TRIPOS>ATOM
      1 OAD         -4.7650     0.6560     2.5070 o          1 40B      -0.873167
      2 PBC         -3.7320    -0.3510     1.9900 p5         1 40B       1.256000
      3 OAE         -2.5630    -0.5400     2.9750 o          1 40B      -0.873167
      4 OAA         -4.3460    -1.6850     1.5310 o          1 40B      -0.873167
      5 CBB         -2.9390     0.4220     0.4670 c3         1 40B      -0.171700
      6 PBD         -4.0360     0.5090    -1.0830 p5         1 40B       1.256000
      7 OAF         -3.4880     1.8590    -1.6470 o          1 40B      -0.873167
      8 OAG         -3.7370    -0.6840    -1.9930 o          1 40B      -0.873167
      9 OAB         -5.5020     0.6170    -0.6710 o          1 40B      -0.873167
     10 OAC         -2.6550     1.7900     0.7570 oh         1 40B      -0.709000
     11 CAU         -1.6720    -0.2980     0.1130 ca         1 40B       0.027700
     12 CAR         -0.4660     0.3820    -0.0390 ca         1 40B      -0.072000
     13 CAL         -1.6540    -1.6840    -0.0930 ca         1 40B      -0.035000
     14 CAJ         -0.4840    -2.3410    -0.4290 ca         1 40B      -0.152000
     15 CAM          0.7100    -1.6440    -0.5850 ca         1 40B      -0.188000
     16 CAV          0.7240    -0.2660    -0.3870 cp         1 40B      -0.102000
     17 CAW          1.9760     0.5030    -0.5460 cp         1 40B       0.049000
     18 CBA          3.2030    -0.0440    -0.1670 ca         1 40B      -0.125000
     19 CAN          1.9690     1.7960    -1.0750 ca         1 40B      -0.151000
     20 CAK          3.1500     2.5080    -1.2160 ca         1 40B      -0.125000
     21 CAQ          4.3610     1.9470    -0.8380 ca         1 40B      -0.186000
     22 CAZ          4.3990     0.6570    -0.3080 cp         1 40B      -0.057000
     23 CAY          5.6800     0.0450     0.1020 cp         1 40B      -0.076000
     24 CAP          5.9190    -1.3160    -0.1010 ca         1 40B      -0.124500
     25 CAI          7.1200    -1.8930     0.2820 ca         1 40B      -0.125500
     26 CAH          8.1100    -1.1200     0.8750 ca         1 40B      -0.268000
     27 CAO          7.8860     0.2350     1.0810 ca         1 40B      -0.125500
     28 CAX          6.6830     0.8110     0.6990 ca         1 40B      -0.124500
     29 H5          -2.8140     2.1930    -0.1340 ho         1 40B       0.476000
     30 H6          -0.4490     1.4480     0.1450 ha         1 40B       0.111000
     31 H7          -2.5710    -2.2360     0.0490 ha         1 40B       0.172000
     32 H8          -0.4960    -3.4140    -0.5820 ha         1 40B       0.052000
     33 H9           1.6110    -2.1680    -0.8790 ha         1 40B       0.048000
     34 H10          3.2210    -1.0290     0.2860 ha         1 40B       0.106000
     35 H11          1.0360     2.2420    -1.3970 ha         1 40B       0.129000
     36 H12          3.1300     3.5030    -1.6410 ha         1 40B       0.064000
     37 H13          5.2780     2.5060    -0.9770 ha         1 40B       0.063000
     38 H14          5.1650    -1.9270    -0.5820 ha         1 40B       0.092000
     39 H15          7.2870    -2.9490     0.1080 ha         1 40B       0.056000
     40 H16          9.0470    -1.5690     1.1750 ha         1 40B       0.052000
     41 H17          8.6480     0.8460     1.5490 ha         1 40B       0.056000
     42 H18          6.5160     1.8650     0.8880 ha         1 40B       0.092000
@<TRIPOS>BOND
     1     1     2 1   
     2     2     3 1   
     3     2     4 1   
     4     2     5 1   
     5     5     6 1   
     6     5    10 1   
     7     5    11 1   
     8     6     7 1   
     9     6     8 1   
    10     6     9 1   
    11    10    29 1   
    12    11    12 ar  
    13    11    13 ar  
    14    12    16 ar  
    15    12    30 1   
    16    13    14 ar  
    17    13    31 1   
    18    14    15 ar  
    19    14    32 1   
    20    15    16 ar  
    21    15    33 1   
    22    16    17 1   
    23    17    18 ar  
    24    17    19 ar  
    25    18    22 ar  
    26    18    34 1   
    27    19    20 ar  
    28    19    35 1   
    29    20    21 ar  
    30    20    36 1   
    31    21    22 ar  
    32    21    37 1   
    33    22    23 1   
    34    23    24 ar  
    35    23    28 ar  
    36    24    25 ar  
    37    24    38 1   
    38    25    26 ar  
    39    25    39 1   
    40    26    27 ar  
    41    26    40 1   
    42    27    28 ar  
    43    27    41 1   
    44    28    42 1   
@<TRIPOS>SUBSTRUCTURE
     1 40B         1 TEMP              0 ****  ****    0 ROOT
