@<TRIPOS>MOLECULE
40C
   36    36     1     0     0
SMALL
abcg2


@<TRIPOS>ATOM
      1 C            2.8970     2.1200     0.1160 c          1 40C       0.711000
      2 N1          -1.8830    -0.5200    -0.2580 n          1 40C      -0.279000
      3 C2          -2.4500     0.5420    -0.9740 c          1 40C       0.712400
      4 O2          -1.7870     1.0930    -1.8430 o          1 40C      -0.519000
      5 N3          -3.7200     0.8970    -0.6850 nc         1 40C      -0.774100
      6 C4          -4.3900     0.2950     0.2780 cd         1 40C       0.781500
      7 N4          -5.6420     0.6900     0.5170 nv         1 40C      -1.052200
      8 C5          -3.8210    -0.7540     1.0620 cd         1 40C      -0.513600
      9 C6          -2.5580    -1.1090     0.7510 cc         1 40C       0.042600
     10 N2           1.7380    -3.0670     0.5560 n8         1 40C      -0.986200
     11 O1           2.4260     2.2180    -1.0280 o          1 40C      -0.724000
     12 C1           2.8710    -2.3050     0.0470 c3         1 40C       0.124500
     13 C2M          3.7890    -3.1030    -0.8750 c3         1 40C      -0.125100
     14 C3           2.3740    -1.0500    -0.6680 c3         1 40C       0.121000
     15 N5           1.7310    -0.0980     0.2150 n          1 40C      -0.348800
     16 C9           2.6070     0.8220     0.9040 c3         1 40C      -0.058000
     17 C7           0.4080     0.0930     0.3060 c          1 40C       0.608100
     18 O7          -0.0930     0.9510     1.0210 o          1 40C      -0.608100
     19 C8          -0.4980    -0.8510    -0.4830 c3         1 40C      -0.004000
     20 H5          -4.3640    -1.2410     1.8570 ha         1 40C       0.188000
     21 H6          -2.0370    -1.8910     1.2870 h4         1 40C       0.195000
     22 H22          3.4540    -1.9870     0.9170 h1         1 40C       0.071700
     23 H13          3.2170    -0.5440    -1.1450 h1         1 40C       0.053200
     24 H23          1.7110    -1.3380    -1.4860 h1         1 40C       0.053200
     25 HN4         -6.0510     1.4300    -0.0260 hn         1 40C       0.490000
     26 HN4A        -6.1990     0.2680     1.2390 hn         1 40C       0.490000
     27 H15          3.5530     0.3130     1.1040 h1         1 40C       0.035200
     28 H25          2.1910     1.0750     1.8790 h1         1 40C       0.035200
     29 H18         -0.3240    -1.8740    -0.1520 h1         1 40C       0.076200
     30 H28         -0.2870    -0.8150    -1.5500 h1         1 40C       0.076200
     31 H2M          4.1270    -4.0140    -0.3830 hc         1 40C       0.031700
     32 H2MA         3.2670    -3.3930    -1.7910 hc         1 40C       0.031700
     33 H2MB         4.6730    -2.5310    -1.1630 hc         1 40C       0.031700
     34 OXT          3.6040     2.9480     0.7260 o          1 40C      -0.724000
     35 HN1          1.2920    -3.5570    -0.2130 hn         1 40C       0.377500
     36 HNXT         2.0740    -3.7940     1.1770 hn         1 40C       0.377500
@<TRIPOS>BOND
     1     1    11 1   
     2     1    16 1   
     3     1    34 1   
     4     2     3 1   
     5     2     9 1   
     6     2    19 1   
     7     3     4 2   
     8     3     5 1   
     9     5     6 2   
    10     6     7 1   
    11     6     8 1   
    12     7    25 1   
    13     7    26 1   
    14     8     9 2   
    15     8    20 1   
    16     9    21 1   
    17    10    12 1   
    18    10    35 1   
    19    10    36 1   
    20    12    13 1   
    21    12    14 1   
    22    12    22 1   
    23    13    31 1   
    24    13    32 1   
    25    13    33 1   
    26    14    15 1   
    27    14    23 1   
    28    14    24 1   
    29    15    16 1   
    30    15    17 1   
    31    16    27 1   
    32    16    28 1   
    33    17    18 2   
    34    17    19 1   
    35    19    29 1   
    36    19    30 1   
@<TRIPOS>SUBSTRUCTURE
     1 40C         1 TEMP              0 ****  ****    0 ROOT
