@<TRIPOS>MOLECULE
40C
   36    36     1     0     0
SMALL
No Charge or Current Charge


@<TRIPOS>ATOM
      1 C            2.9480     2.3350     0.2440 c          1 40C       0.711000
      2 N1          -1.9450    -0.3740    -0.1520 n          1 40C      -0.279000
      3 C2          -2.5580     0.7200    -0.8050 c          1 40C       0.712400
      4 O2          -1.9580     1.4100    -1.6130 o          1 40C      -0.519000
      5 N3          -3.8700     0.9970    -0.5220 nc         1 40C      -0.774100
      6 C4          -4.5130     0.2760     0.3310 cd         1 40C       0.781500
      7 N4          -5.7690     0.6200     0.5250 nv         1 40C      -1.052200
      8 C5          -3.9700    -0.8260     1.0190 cd         1 40C      -0.513600
      9 C6          -2.6560    -1.1400     0.7640 cc         1 40C       0.042600
     10 N2           1.8300    -3.0430     0.7450 n8         1 40C      -0.986200
     11 O1           2.9140     2.5290    -0.9640 o          1 40C      -0.724000
     12 C1           2.9230    -2.3500     0.0260 c3         1 40C       0.124500
     13 C2M          3.6460    -3.3590    -0.8850 c3         1 40C      -0.125100
     14 C3           2.4240    -1.1030    -0.7630 c3         1 40C       0.121000
     15 N5           1.8990    -0.0120     0.1010 n          1 40C      -0.348800
     16 C9           2.9100     0.8710     0.7590 c3         1 40C      -0.058000
     17 C7           0.5120     0.2000     0.3190 c          1 40C       0.608100
     18 O7           0.1350     1.0730     1.0970 o          1 40C      -0.608100
     19 C8          -0.5140    -0.6760    -0.4440 c3         1 40C      -0.004000
     20 H5          -4.5620    -1.3940     1.7260 ha         1 40C       0.188000
     21 H6          -2.0810    -1.9480     1.2110 h4         1 40C       0.195000
     22 H22          3.6440    -1.9920     0.7760 h1         1 40C       0.071700
     23 H13          3.2710    -0.6970    -1.3310 h1         1 40C       0.053200
     24 H23          1.6820    -1.4130    -1.5070 h1         1 40C       0.053200
     25 HN4         -6.1340     1.2250    -0.1980 hn         1 40C       0.490000
     26 HN4A        -6.3850    -0.1170     0.8400 hn         1 40C       0.490000
     27 H15          3.9130     0.4490     0.6190 h1         1 40C       0.035200
     28 H25          2.7120     0.8880     1.8380 h1         1 40C       0.035200
     29 H18         -0.3100    -1.7240    -0.2010 h1         1 40C       0.076200
     30 H28         -0.3310    -0.5490    -1.5180 h1         1 40C       0.076200
     31 H2M          4.0230    -4.2100    -0.3040 hc         1 40C       0.031700
     32 H2MA         2.9740    -3.7400    -1.6640 hc         1 40C       0.031700
     33 H2MB         4.5040    -2.8840    -1.3770 hc         1 40C       0.031700
     34 OXT          3.0370     3.2350     1.0670 o          1 40C      -0.724000
     35 HN1          1.3180    -3.6350     0.0810 hn         1 40C       0.377500
     36 HNXT         2.2390    -3.7210     1.3990 hn         1 40C       0.377500
@<TRIPOS>BOND
     1     1    11 1   
     2     1    16 1   
     3     1    34 1   
     4     2     3 1   
     5     2     9 1   
     6     2    19 1   
     7     3     4 2   
     8     3     5 1   
     9     5     6 2   
    10     6     7 1   
    11     6     8 1   
    12     7    25 1   
    13     7    26 1   
    14     8     9 2   
    15     8    20 1   
    16     9    21 1   
    17    10    12 1   
    18    10    35 1   
    19    10    36 1   
    20    12    13 1   
    21    12    14 1   
    22    12    22 1   
    23    13    31 1   
    24    13    32 1   
    25    13    33 1   
    26    14    15 1   
    27    14    23 1   
    28    14    24 1   
    29    15    16 1   
    30    15    17 1   
    31    16    27 1   
    32    16    28 1   
    33    17    18 2   
    34    17    19 1   
    35    19    29 1   
    36    19    30 1   
@<TRIPOS>SUBSTRUCTURE
     1 40C         1 TEMP              0 ****  ****    0 ROOT
