@<TRIPOS>MOLECULE
40D
   40    41     1     0     0
SMALL
No Charge or Current Charge


@<TRIPOS>ATOM
      1 F2          -3.2830     2.8690     2.5910 f          1 40D      -0.114000
      2 C16         -3.6680     1.6380     2.1870 c3         1 40D       0.364300
      3 F           -4.0740     0.9680     3.2900 f          1 40D      -0.114000
      4 F1          -4.7640     1.8020     1.4110 f          1 40D      -0.114000
      5 C13         -2.5360     0.9160     1.4500 ca         1 40D      -0.245300
      6 C12         -1.6200     0.1090     2.1570 ca         1 40D      -0.007000
      7 C11         -0.5760    -0.5440     1.4810 ca         1 40D      -0.206000
      8 C14         -2.3790     1.0700     0.0560 ca         1 40D       0.002000
      9 C15         -1.3340     0.4170    -0.6190 ca         1 40D      -0.079900
     10 Br          -1.1590     0.6520    -2.5150 br         1 40D      -0.070100
     11 C10         -0.4230    -0.3920     0.0870 ca         1 40D       0.206100
     12 O            0.5850    -1.0140    -0.6250 os         1 40D      -0.328100
     13 H1          -1.7120    -0.0170     3.2350 ha         1 40D       0.132000
     14 H2           0.1030    -1.1640     2.0580 ha         1 40D       0.132000
     15 H3          -3.0650     1.6980    -0.5110 ha         1 40D       0.143000
     16 C1           1.6910    -1.6940    -0.0010 c3         1 40D       0.226600
     17 C2           2.4830    -2.4050    -1.1180 c3         1 40D      -0.076400
     18 C4           2.9200     0.5470     0.1500 ca         1 40D      -0.091500
     19 C5           3.7150     1.4720     0.8480 ca         1 40D      -0.110000
     20 C6           4.1580     1.1800     2.1480 ca         1 40D      -0.098000
     21 C7           3.8060    -0.0390     2.7510 ca         1 40D      -0.110000
     22 C8           3.0100    -0.9650     2.0540 ca         1 40D      -0.091500
     23 C9           2.5580    -0.6790     0.7500 ca         1 40D      -0.132300
     24 C3           1.6640    -3.4870    -1.8490 c3         1 40D       0.154800
     25 N1           2.5010    -4.1710    -2.8550 n7         1 40D      -0.859400
     26 C18          1.8270    -5.2540    -3.5980 c3         1 40D       0.143100
     27 H4           1.3250    -2.4590     0.6970 h1         1 40D       0.053700
     28 H5           2.8390    -1.6620    -1.8410 hc         1 40D       0.064700
     29 H6           3.3710    -2.8690    -0.6730 hc         1 40D       0.064700
     30 H7           2.5810     0.7840    -0.8560 ha         1 40D       0.119500
     31 H8           3.9870     2.4160     0.3800 ha         1 40D       0.116500
     32 H9           4.7730     1.8970     2.6880 ha         1 40D       0.116000
     33 H10          4.1490    -0.2660     3.7570 ha         1 40D       0.116500
     34 H11          2.7460    -1.9070     2.5320 ha         1 40D       0.119500
     35 H12          1.2890    -4.2100    -1.1100 h1         1 40D       0.039200
     36 H13          0.7930    -3.0200    -2.3300 h1         1 40D       0.039200
     37 H14          2.8230    -3.4700    -3.5350 hn         1 40D       0.405000
     38 H15          2.5160    -5.7160    -4.3160 h1         1 40D       0.030367
     39 H16          1.4730    -6.0370    -2.9130 h1         1 40D       0.030367
     40 H17          0.9620    -4.8680    -4.1550 h1         1 40D       0.030367
@<TRIPOS>BOND
     1     1     2 1   
     2     2     3 1   
     3     2     4 1   
     4     2     5 1   
     5     5     6 ar  
     6     5     8 ar  
     7     6     7 ar  
     8     6    13 1   
     9     7    11 ar  
    10     7    14 1   
    11     8     9 ar  
    12     8    15 1   
    13     9    10 1   
    14     9    11 ar  
    15    11    12 1   
    16    12    16 1   
    17    16    17 1   
    18    16    23 1   
    19    16    27 1   
    20    17    24 1   
    21    17    28 1   
    22    17    29 1   
    23    18    19 ar  
    24    18    23 ar  
    25    18    30 1   
    26    19    20 ar  
    27    19    31 1   
    28    20    21 ar  
    29    20    32 1   
    30    21    22 ar  
    31    21    33 1   
    32    22    23 ar  
    33    22    34 1   
    34    24    25 1   
    35    24    35 1   
    36    24    36 1   
    37    25    26 1   
    38    25    37 1   
    39    26    38 1   
    40    26    39 1   
    41    26    40 1   
@<TRIPOS>SUBSTRUCTURE
     1 40D         1 TEMP              0 ****  ****    0 ROOT
