@<TRIPOS>MOLECULE
40D
   40    41     1     0     0
SMALL
abcg2


@<TRIPOS>ATOM
      1 F2          -3.6250     2.7720     2.0650 f          1 40D      -0.114000
      2 C16         -3.7560     1.4380     2.0020 c3         1 40D       0.364300
      3 F           -3.9320     1.0080     3.2550 f          1 40D      -0.114000
      4 F1          -4.8960     1.2020     1.3400 f          1 40D      -0.114000
      5 C13         -2.5810     0.7950     1.3400 ca         1 40D      -0.245300
      6 C12         -1.5920     0.1660     2.0780 ca         1 40D      -0.007000
      7 C11         -0.4910    -0.3920     1.4500 ca         1 40D      -0.206000
      8 C14         -2.4610     0.8700    -0.0450 ca         1 40D       0.002000
      9 C15         -1.3640     0.3130    -0.6680 ca         1 40D      -0.079900
     10 BR          -1.2110     0.4060    -2.5400 br         1 40D      -0.070100
     11 C10         -0.3580    -0.3330     0.0640 ca         1 40D       0.206100
     12 O            0.6520    -0.8520    -0.6330 os         1 40D      -0.328100
     13 H1          -1.6560     0.0960     3.1550 ha         1 40D       0.132000
     14 H2           0.2600    -0.8700     2.0610 ha         1 40D       0.132000
     15 H3          -3.2220     1.3580    -0.6400 ha         1 40D       0.143000
     16 C1           1.6970    -1.5650     0.0260 c3         1 40D       0.226600
     17 C2           2.4550    -2.3310    -1.0470 c3         1 40D      -0.076400
     18 C4           2.9330     0.6250     0.2770 ca         1 40D      -0.091500
     19 C5           3.8100     1.4520     0.9640 ca         1 40D      -0.110000
     20 C6           4.3780     1.0300     2.1600 ca         1 40D      -0.098000
     21 C7           4.0600    -0.2210     2.6690 ca         1 40D      -0.110000
     22 C8           3.1760    -1.0450     1.9840 ca         1 40D      -0.091500
     23 C9           2.6080    -0.6300     0.7850 ca         1 40D      -0.132300
     24 C3           1.5890    -3.3080    -1.8310 c3         1 40D       0.154800
     25 N1           2.4130    -4.1520    -2.6760 n7         1 40D      -0.859400
     26 C18          1.6250    -5.0800    -3.4620 c3         1 40D       0.143100
     27 H4           1.2550    -2.2910     0.7210 h1         1 40D       0.053700
     28 H5           2.9450    -1.6240    -1.7240 hc         1 40D       0.064700
     29 H6           3.2510    -2.8870    -0.5450 hc         1 40D       0.064700
     30 H7           2.4990     0.9650    -0.6560 ha         1 40D       0.119500
     31 H8           4.0520     2.4280     0.5640 ha         1 40D       0.116500
     32 H9           5.0630     1.6760     2.6930 ha         1 40D       0.116000
     33 H10          4.4930    -0.5550     3.6020 ha         1 40D       0.116500
     34 H11          2.9230    -2.0180     2.3910 ha         1 40D       0.119500
     35 H12          1.0470    -3.9530    -1.1300 h1         1 40D       0.039200
     36 H13          0.8250    -2.7610    -2.4020 h1         1 40D       0.039200
     37 H14          2.9420    -3.5620    -3.3070 hn         1 40D       0.405000
     38 H15          2.2760    -5.6580    -4.1170 h1         1 40D       0.030367
     39 H16          1.1140    -5.7840    -2.8020 h1         1 40D       0.030367
     40 H17          0.8570    -4.6020    -4.0860 h1         1 40D       0.030367
@<TRIPOS>BOND
     1     1     2 1   
     2     2     3 1   
     3     2     4 1   
     4     2     5 1   
     5     5     6 ar  
     6     5     8 ar  
     7     6     7 ar  
     8     6    13 1   
     9     7    11 ar  
    10     7    14 1   
    11     8     9 ar  
    12     8    15 1   
    13     9    10 1   
    14     9    11 ar  
    15    11    12 1   
    16    12    16 1   
    17    16    17 1   
    18    16    23 1   
    19    16    27 1   
    20    17    24 1   
    21    17    28 1   
    22    17    29 1   
    23    18    19 ar  
    24    18    23 ar  
    25    18    30 1   
    26    19    20 ar  
    27    19    31 1   
    28    20    21 ar  
    29    20    32 1   
    30    21    22 ar  
    31    21    33 1   
    32    22    23 ar  
    33    22    34 1   
    34    24    25 1   
    35    24    35 1   
    36    24    36 1   
    37    25    26 1   
    38    25    37 1   
    39    26    38 1   
    40    26    39 1   
    41    26    40 1   
@<TRIPOS>SUBSTRUCTURE
     1 40D         1 TEMP              0 ****  ****    0 ROOT
