@<TRIPOS>MOLECULE
40E
   17    16     1     0     0
SMALL
No Charge or Current Charge


@<TRIPOS>ATOM
      1 C1          -1.9440     0.3680     0.1130 c          1 40E       0.665000
      2 O11         -3.0070    -0.2370    -0.0220 o          1 40E      -0.700000
      3 O12         -1.8860     1.5450     0.4650 o          1 40E      -0.700000
      4 C2          -0.5380    -0.4220    -0.1890 c          1 40E       0.443100
      5 O2          -0.4700    -1.5990    -0.5510 o          1 40E      -0.653100
      6 N3           0.6070     0.3470    -0.0090 ns         1 40E      -0.514900
      7 C4           1.9810    -0.1200    -0.1940 c3         1 40E       0.110700
      8 C41          2.8890     1.0520    -0.6150 c3         1 40E      -0.100600
      9 C42          2.4960    -0.8300     1.0740 c3         1 40E      -0.100600
     10 H2           0.4540     1.3060     0.2870 hn         1 40E       0.332500
     11 H3           1.9860    -0.8500    -1.0150 h1         1 40E       0.056700
     12 H4           2.9250     1.8200     0.1680 hc         1 40E       0.026700
     13 H5           3.9110     0.7000    -0.7980 hc         1 40E       0.026700
     14 H6           2.5190     1.5150    -1.5370 hc         1 40E       0.026700
     15 H7           3.5150    -1.2030     0.9200 hc         1 40E       0.026700
     16 H8           2.5080    -0.1420     1.9290 hc         1 40E       0.026700
     17 H9           1.8570    -1.6840     1.3280 hc         1 40E       0.026700
@<TRIPOS>BOND
     1     1     2 1   
     2     1     3 1   
     3     1     4 1   
     4     4     5 2   
     5     4     6 1   
     6     6     7 1   
     7     6    10 1   
     8     7     8 1   
     9     7     9 1   
    10     7    11 1   
    11     8    12 1   
    12     8    13 1   
    13     8    14 1   
    14     9    15 1   
    15     9    16 1   
    16     9    17 1   
@<TRIPOS>SUBSTRUCTURE
     1 40E         1 TEMP              0 ****  ****    0 ROOT
