@<TRIPOS>MOLECULE
40E
   17    16     1     0     0
SMALL
bcc


@<TRIPOS>ATOM
      1 C1          -1.8360     0.3600     0.1110 c          1 40E       0.875600
      2 O11         -2.8700    -0.2970    -0.0560 o          1 40E      -0.805300
      3 O12         -1.7180     1.5450     0.4780 o          1 40E      -0.805300
      4 C2          -0.5060    -0.4020    -0.1750 c          1 40E       0.510100
      5 O2          -0.4860    -1.5790    -0.5090 o          1 40E      -0.653100
      6 N3           0.5880     0.3530    -0.0300 ns         1 40E      -0.581900
      7 C4           1.9470    -0.1230    -0.2030 c3         1 40E       0.110700
      8 C41          2.8410     1.0420    -0.6010 c3         1 40E      -0.100600
      9 C42          2.4600    -0.8170     1.0540 c3         1 40E      -0.100600
     10 H2           0.4330     1.3000     0.2830 hn         1 40E       0.332500
     11 H3           1.9380    -0.8480    -1.0210 h1         1 40E       0.056700
     12 H4           2.8670     1.8050     0.1810 hc         1 40E       0.026700
     13 H5           3.8630     0.6980    -0.7580 hc         1 40E       0.026700
     14 H6           2.4980     1.5110    -1.5230 hc         1 40E       0.026700
     15 H7           3.4680    -1.2030     0.8960 hc         1 40E       0.026700
     16 H8           2.4930    -0.1220     1.8960 hc         1 40E       0.026700
     17 H9           1.8220    -1.6570     1.3300 hc         1 40E       0.026700
@<TRIPOS>BOND
     1     1     2 1   
     2     1     3 1   
     3     1     4 1   
     4     4     5 2   
     5     4     6 1   
     6     6     7 1   
     7     6    10 1   
     8     7     8 1   
     9     7     9 1   
    10     7    11 1   
    11     8    12 1   
    12     8    13 1   
    13     8    14 1   
    14     9    15 1   
    15     9    16 1   
    16     9    17 1   
@<TRIPOS>SUBSTRUCTURE
     1 40E         1 TEMP              0 ****  ****    0 ROOT
