@<TRIPOS>MOLECULE
40F
   22    23     1     0     0
SMALL
abcg2


@<TRIPOS>ATOM
      1 O1          -3.2360     0.8850    -0.7180 o          1 40F      -0.750000
      2 C7          -1.4250    -1.5820     0.4830 c5         1 40F      -0.049400
      3 O2           3.4980     0.4250    -1.1400 o          1 40F      -0.761500
      4 C6          -0.0370    -2.1750     0.7560 c5         1 40F      -0.044400
      5 C1          -1.1770    -0.2450    -0.2540 c5         1 40F       0.053200
      6 C5           0.8550    -0.9560     0.9470 cx         1 40F      -0.141700
      7 C3           1.4400    -0.3390    -0.2940 cx         1 40F      -0.223700
      8 C2           0.1710     0.2080     0.3130 cx         1 40F      -0.074700
      9 O3           2.8630     1.1520     0.8670 o          1 40F      -0.761500
     10 N           -1.0850    -0.5140    -1.6880 n8         1 40F      -0.991200
     11 C           -2.3150     0.7480     0.1140 c          1 40F       0.702000
     12 O           -2.2500     1.2940     1.2340 o          1 40F      -0.750000
     13 H2          -2.0790    -2.2490    -0.0840 hc         1 40F       0.021700
     14 H3          -1.9120    -1.3810     1.4410 hc         1 40F       0.021700
     15 H5          -0.0380    -2.8170     1.6390 hc         1 40F       0.004700
     16 H6           0.3010    -2.7910    -0.0810 hc         1 40F       0.004700
     17 H7           1.4030    -0.8410     1.8750 hc         1 40F       0.074700
     18 H8           1.3400    -0.9170    -1.2070 hc         1 40F       0.065700
     19 H9           0.2350     1.1880     0.7650 hc         1 40F       0.107700
     20 H10         -2.0350    -0.5490    -2.0420 hn         1 40F       0.379000
     21 H11         -0.6710     0.2920    -2.1430 hn         1 40F       0.379000
     22 C4           2.7040     0.4830    -0.1760 c          1 40F       0.734000
@<TRIPOS>BOND
     1     1    11 1   
     2     2     4 1   
     3     2     5 1   
     4     2    13 1   
     5     2    14 1   
     6     3    22 1   
     7     4     6 1   
     8     4    15 1   
     9     4    16 1   
    10     5     8 1   
    11     5    10 1   
    12     5    11 1   
    13     6     7 1   
    14     6     8 1   
    15     6    17 1   
    16     7     8 1   
    17     7    18 1   
    18     7    22 1   
    19     8    19 1   
    20     9    22 1   
    21    10    20 1   
    22    10    21 1   
    23    11    12 1   
@<TRIPOS>SUBSTRUCTURE
     1 40F         1 TEMP              0 ****  ****    0 ROOT
