@<TRIPOS>MOLECULE
40F
   22    23     1     0     0
SMALL
No Charge or Current Charge


@<TRIPOS>ATOM
      1 O1          -3.3550     0.9150    -0.4300 o          1 40F      -0.750000
      2 C7          -1.3970    -1.6130     0.4740 c5         1 40F      -0.049400
      3 O2           3.7480    -0.1100     0.2330 o          1 40F      -0.761500
      4 C6           0.0230    -2.2430     0.5560 c5         1 40F      -0.044400
      5 C1          -1.1900    -0.2220    -0.2330 c5         1 40F       0.053200
      6 C5           0.8830    -1.0200     0.9000 cx         1 40F      -0.141700
      7 C3           1.4670    -0.3130    -0.3080 cx         1 40F      -0.223700
      8 C2           0.1940     0.2110     0.3530 cx         1 40F      -0.074700
      9 O3           2.7360     1.6660    -0.4430 o          1 40F      -0.761500
     10 N           -1.1450    -0.3660    -1.7330 n8         1 40F      -0.991200
     11 C           -2.3890     0.7170     0.2990 c          1 40F       0.702000
     12 O           -2.3040     1.2750     1.3860 o          1 40F      -0.750000
     13 H2          -2.1050    -2.2590    -0.0580 hc         1 40F       0.021700
     14 H3          -1.8000    -1.4850     1.4860 hc         1 40F       0.021700
     15 H5           0.0750    -3.0170     1.3290 hc         1 40F       0.004700
     16 H6           0.3150    -2.7160    -0.3890 hc         1 40F       0.004700
     17 H7           1.3830    -0.9420     1.8630 hc         1 40F       0.074700
     18 H8           1.3900    -0.8170    -1.2650 hc         1 40F       0.065700
     19 H9           0.2700     1.1330     0.9270 hc         1 40F       0.107700
     20 H10         -2.1080    -0.4960    -2.0610 hn         1 40F       0.379000
     21 H11         -0.8850     0.5390    -2.1370 hn         1 40F       0.379000
     22 C4           2.7460     0.4820    -0.1400 c          1 40F       0.734000
@<TRIPOS>BOND
     1     1    11 1   
     2     2     4 1   
     3     2     5 1   
     4     2    13 1   
     5     2    14 1   
     6     3    22 1   
     7     4     6 1   
     8     4    15 1   
     9     4    16 1   
    10     5     8 1   
    11     5    10 1   
    12     5    11 1   
    13     6     7 1   
    14     6     8 1   
    15     6    17 1   
    16     7     8 1   
    17     7    18 1   
    18     7    22 1   
    19     8    19 1   
    20     9    22 1   
    21    10    20 1   
    22    10    21 1   
    23    11    12 1   
@<TRIPOS>SUBSTRUCTURE
     1 40F         1 TEMP              0 ****  ****    0 ROOT
