@<TRIPOS>MOLECULE
40G
   39    40     1     0     0
SMALL
bcc


@<TRIPOS>ATOM
      1 C            3.6380     1.6730     0.7120 c          1 40G       0.910600
      2 N1          -4.4660    -0.4860     0.4390 ns         1 40G      -0.528400
      3 C2          -3.4340    -0.9480     1.2080 cc         1 40G       0.720800
      4 N2          -3.7130    -1.9340     2.0690 nv         1 40G      -0.955800
      5 N3          -2.2230    -0.4520     1.1490 nd         1 40G      -0.678100
      6 C4          -2.1100     0.5550     0.2730 cd         1 40G       0.127800
      7 C5          -3.0840     1.1010    -0.5430 cc         1 40G       0.151800
      8 C6          -4.4000     0.5590    -0.4920 c          1 40G       0.666000
      9 O6          -5.3900     0.8860    -1.1260 o          1 40G      -0.624500
     10 N7          -2.5650     2.1210    -1.2990 nc         1 40G      -0.625000
     11 C8          -1.3190     2.1840    -0.9450 cd         1 40G       0.428400
     12 N9          -0.9880     1.2730     0.0220 na         1 40G      -0.158900
     13 N5           1.9790    -3.2100    -0.1060 n8         1 40G      -0.867800
     14 O1           3.3140     2.1960    -0.3670 o          1 40G      -0.825800
     15 C1           3.2760    -2.5950    -0.3400 c3         1 40G       0.135500
     16 C2M          4.1860    -3.3870    -1.2770 c3         1 40G      -0.128100
     17 C3           3.0890    -1.1840    -0.8910 c3         1 40G       0.108000
     18 N4           2.2970    -0.3270    -0.0330 n          1 40G      -0.409800
     19 C9           3.0020     0.3050     1.0600 c3         1 40G      -0.066000
     20 C7           1.0480     0.0020    -0.3870 c          1 40G       0.680100
     21 O7           0.4740    -0.4370    -1.3730 o          1 40G      -0.647100
     22 C10          0.3270     0.9980     0.5230 c3         1 40G      -0.044700
     23 HN1         -5.3720    -0.9260     0.5380 hn         1 40G       0.307500
     24 H8          -0.5870     2.8780    -1.3330 h5         1 40G       0.071100
     25 H22          3.7760    -2.5220     0.6330 h1         1 40G       0.060700
     26 HN2         -4.5850    -2.4340     2.0400 hn         1 40G       0.442800
     27 HN2A        -2.9520    -2.3640     2.5640 hn         1 40G       0.442800
     28 H13          4.0680    -0.7180    -1.0380 h1         1 40G       0.059700
     29 H23          2.6210    -1.2400    -1.8740 h1         1 40G       0.059700
     30 H15          3.7870    -0.3760     1.3980 h1         1 40G       0.034200
     31 H25          2.3500     0.4260     1.9280 h1         1 40G       0.034200
     32 H18          0.8850     1.9320     0.5770 h1         1 40G       0.099200
     33 H28          0.2370     0.6110     1.5390 h1         1 40G       0.099200
     34 H2M          4.3780    -4.3830    -0.8760 hc         1 40G       0.029700
     35 H2MA         3.7210    -3.5060    -2.2590 hc         1 40G       0.029700
     36 H2MB         5.1500    -2.8960    -1.4210 hc         1 40G       0.029700
     37 OXT          4.4080     2.1230     1.5810 o          1 40G      -0.825800
     38 H3           1.4800    -3.2900    -0.9850 hn         1 40G       0.328800
     39 HNXT         2.1130    -4.1580     0.2240 hn         1 40G       0.328800
@<TRIPOS>BOND
     1     1    14 1   
     2     1    19 1   
     3     1    37 1   
     4     2     3 1   
     5     2     8 1   
     6     2    23 1   
     7     3     4 1   
     8     3     5 2   
     9     4    26 1   
    10     4    27 1   
    11     5     6 1   
    12     6     7 2   
    13     6    12 1   
    14     7     8 1   
    15     7    10 1   
    16     8     9 2   
    17    10    11 2   
    18    11    12 1   
    19    11    24 1   
    20    12    22 1   
    21    13    15 1   
    22    13    38 1   
    23    13    39 1   
    24    15    16 1   
    25    15    17 1   
    26    15    25 1   
    27    16    34 1   
    28    16    35 1   
    29    16    36 1   
    30    17    18 1   
    31    17    28 1   
    32    17    29 1   
    33    18    19 1   
    34    18    20 1   
    35    19    30 1   
    36    19    31 1   
    37    20    21 2   
    38    20    22 1   
    39    22    32 1   
    40    22    33 1   
@<TRIPOS>SUBSTRUCTURE
     1 40G         1 TEMP              0 ****  ****    0 ROOT
