@<TRIPOS>MOLECULE
40G
   39    40     1     0     0
SMALL
No Charge or Current Charge


@<TRIPOS>ATOM
      1 C            3.7250     1.6060     1.0830 c          1 40G       0.700000
      2 N1          -4.8870    -0.1940     0.7820 ns         1 40G      -0.461400
      3 C2          -3.8630    -0.5200     1.6020 cc         1 40G       0.720800
      4 N2          -4.1930    -1.1750     2.6990 nv         1 40G      -1.066200
      5 N3          -2.5870    -0.2610     1.4300 nd         1 40G      -0.678100
      6 C4          -2.3350     0.4270     0.2420 cd         1 40G       0.142400
      7 C5          -3.3040     0.8000    -0.6520 cc         1 40G       0.086500
      8 C6          -4.7290     0.4780    -0.3900 c          1 40G       0.523500
      9 O6          -5.6800     0.7620    -1.1070 o          1 40G      -0.549000
     10 N7          -2.7520     1.4640    -1.7250 nc         1 40G      -0.625000
     11 C8          -1.4380     1.4910    -1.4820 cd         1 40G       0.428400
     12 N9          -1.1370     0.8650    -0.2720 na         1 40G      -0.137500
     13 N5           2.2250    -3.2770    -0.9900 n8         1 40G      -0.978200
     14 O1           3.0490     2.5960     0.8440 o          1 40G      -0.720500
     15 C1           3.4820    -2.6520    -0.5260 c3         1 40G       0.135500
     16 C2M          4.6800    -3.3740    -1.1730 c3         1 40G      -0.128100
     17 C3           3.4950    -1.1230    -0.8070 c3         1 40G       0.108000
     18 N4           2.5000    -0.3610    -0.0070 n          1 40G      -0.342800
     19 C9           2.9950     0.2510     1.2640 c3         1 40G      -0.066000
     20 C7           1.1920    -0.1350    -0.5090 c          1 40G       0.613100
     21 O7           0.8520    -0.6240    -1.5830 o          1 40G      -0.647100
     22 C10          0.2040     0.7010     0.3310 c3         1 40G      -0.015400
     23 HN1         -5.8280    -0.4320     1.0480 hn         1 40G       0.307500
     24 H8          -0.6710     1.9320    -2.1090 h5         1 40G       0.071100
     25 H22          3.5450    -2.7850     0.5640 h1         1 40G       0.060700
     26 HN2         -5.0050    -1.7760     2.6400 hn         1 40G       0.498000
     27 HN2A        -3.4010    -1.5680     3.1930 hn         1 40G       0.498000
     28 H13          4.4950    -0.7370    -0.5700 h1         1 40G       0.059700
     29 H23          3.3360    -0.9400    -1.8780 h1         1 40G       0.059700
     30 H15          3.6970    -0.4490     1.7340 h1         1 40G       0.034200
     31 H25          2.1750     0.3920     1.9760 h1         1 40G       0.034200
     32 H18          0.6440     1.6910     0.4890 h1         1 40G       0.099200
     33 H28          0.1000     0.2120     1.3050 h1         1 40G       0.099200
     34 H2M          4.6630    -4.4450    -0.9380 hc         1 40G       0.029700
     35 H2MA         4.6690    -3.2570    -2.2630 hc         1 40G       0.029700
     36 H2MB         5.6230    -2.9620    -0.7940 hc         1 40G       0.029700
     37 OXT          4.9450     1.6200     1.1550 o          1 40G      -0.720500
     38 H3           1.5510    -2.5200    -1.1720 hn         1 40G       0.384000
     39 HNXT         2.3820    -3.6740    -1.9220 hn         1 40G       0.384000
@<TRIPOS>BOND
     1     1    14 1   
     2     1    19 1   
     3     1    37 1   
     4     2     3 1   
     5     2     8 1   
     6     2    23 1   
     7     3     4 1   
     8     3     5 2   
     9     4    26 1   
    10     4    27 1   
    11     5     6 1   
    12     6     7 2   
    13     6    12 1   
    14     7     8 1   
    15     7    10 1   
    16     8     9 2   
    17    10    11 2   
    18    11    12 1   
    19    11    24 1   
    20    12    22 1   
    21    13    15 1   
    22    13    38 1   
    23    13    39 1   
    24    15    16 1   
    25    15    17 1   
    26    15    25 1   
    27    16    34 1   
    28    16    35 1   
    29    16    36 1   
    30    17    18 1   
    31    17    28 1   
    32    17    29 1   
    33    18    19 1   
    34    18    20 1   
    35    19    30 1   
    36    19    31 1   
    37    20    21 2   
    38    20    22 1   
    39    22    32 1   
    40    22    33 1   
@<TRIPOS>SUBSTRUCTURE
     1 40G         1 TEMP              0 ****  ****    0 ROOT
