@<TRIPOS>MOLECULE
40G
   39    40     1     0     0
SMALL
bcc


@<TRIPOS>ATOM
      1 H            3.6380     1.6730     0.7120 c          1 40G       0.330000
      2 H1          -4.4660    -0.4860     0.4390 na         1 40G      -0.368000
      3 H2          -3.4340    -0.9480     1.2080 cc         1 40G       0.274000
      4 H2          -3.7130    -1.9340     2.0690 nv         1 40G      -0.394000
      5 H3          -2.2230    -0.4520     1.1490 n2         1 40G      -0.251000
      6 H4          -2.1100     0.5550     0.2730 cc         1 40G       0.078000
      7 H5          -3.0840     1.1010    -0.5430 cd         1 40G      -0.266000
      8 H6          -4.4000     0.5590    -0.4920 c          1 40G       0.413000
      9 H6          -5.3900     0.8860    -1.1260 o          1 40G      -0.349000
     10 H7          -2.5650     2.1210    -1.2990 n2         1 40G      -0.099000
     11 H8          -1.3190     2.1840    -0.9450 cc         1 40G      -0.060000
     12 H9          -0.9880     1.2730     0.0220 na         1 40G      -0.114000
     13 H5           1.9790    -3.2100    -0.1060 n8         1 40G      -0.300000
     14 H1           3.3140     2.1960    -0.3670 o          1 40G      -0.560500
     15 H1           3.2760    -2.5950    -0.3400 c3         1 40G      -0.062000
     16 H2M          4.1860    -3.3870    -1.2770 c3         1 40G      -0.246000
     17 H3           3.0890    -1.1840    -0.8910 c3         1 40G      -0.008000
     18 H4           2.2970    -0.3270    -0.0330 n3         1 40G      -0.268000
     19 H9           3.0020     0.3050     1.0600 c3         1 40G      -0.132000
     20 H7           1.0480     0.0020    -0.3870 c          1 40G       0.324000
     21 H7           0.4740    -0.4370    -1.3730 o          1 40G      -0.408000
     22 H10          0.3270     0.9980     0.5230 c3         1 40G      -0.054000
     23 HN1         -5.3720    -0.9260     0.5380 ha         1 40G       0.221000
     24 H8          -0.5870     2.8780    -1.3330 ha         1 40G       0.208000
     25 H22          3.7760    -2.5220     0.6330 ha         1 40G       0.100000
     26 HN2         -4.5850    -2.4340     2.0400 ha         1 40G       0.238000
     27 HN2A        -2.9520    -2.3640     2.5640 ha         1 40G       0.238000
     28 H13          4.0680    -0.7180    -1.0380 ha         1 40G       0.099000
     29 H23          2.6210    -1.2400    -1.8740 ha         1 40G       0.099000
     30 H15          3.7870    -0.3760     1.3980 ha         1 40G       0.073500
     31 H25          2.3500     0.4260     1.9280 ha         1 40G       0.073500
     32 H18          0.8850     1.9320     0.5770 ha         1 40G       0.138500
     33 H28          0.2370     0.6110     1.5390 ha         1 40G       0.138500
     34 H2M          4.3780    -4.3830    -0.8760 ha         1 40G       0.069000
     35 H2MA         3.7210    -3.5060    -2.2590 ha         1 40G       0.069000
     36 H2MB         5.1500    -2.8960    -1.4210 ha         1 40G       0.069000
     37 HXT          4.4080     2.1230     1.5810 o          1 40G      -0.560500
     38 H3           1.4800    -3.2900    -0.9850 ha         1 40G       0.124000
     39 HNXT         2.1130    -4.1580     0.2240 ha         1 40G       0.124000
@<TRIPOS>BOND
     1     1    14 1   
     2     1    19 1   
     3     1    37 1   
     4     2     3 1   
     5     2     8 1   
     6     2    23 1   
     7     3     4 1   
     8     3     5 2   
     9     4    26 1   
    10     4    27 1   
    11     5     6 1   
    12     6     7 2   
    13     6    12 1   
    14     7     8 1   
    15     7    10 1   
    16     8     9 2   
    17    10    11 2   
    18    11    12 1   
    19    11    24 1   
    20    12    22 1   
    21    13    15 1   
    22    13    38 1   
    23    13    39 1   
    24    15    16 1   
    25    15    17 1   
    26    15    25 1   
    27    16    34 1   
    28    16    35 1   
    29    16    36 1   
    30    17    18 1   
    31    17    28 1   
    32    17    29 1   
    33    18    19 1   
    34    18    20 1   
    35    19    30 1   
    36    19    31 1   
    37    20    21 2   
    38    20    22 1   
    39    22    32 1   
    40    22    33 1   
@<TRIPOS>SUBSTRUCTURE
     1 40G         1 TEMP              0 ****  ****    0 ROOT
