@<TRIPOS>MOLECULE
40H
   26    28     1     0     0
SMALL
bcc


@<TRIPOS>ATOM
      1 O1          -3.4080    -1.1200    -1.1650 o          1 40H      -0.864800
      2 C7          -0.1290     3.2700     0.6450 cx         1 40H      -0.149900
      3 O2           2.1770    -1.3410     1.6660 o          1 40H      -0.852800
      4 C6          -0.4050     2.8980    -0.7840 cx         1 40H      -0.149900
      5 C1           1.2110    -0.2550    -0.2420 c5         1 40H       0.054200
      6 C5           0.0570     1.8590     0.1890 cx         1 40H      -0.036000
      7 C4          -0.8620     0.7560     0.6440 cx         1 40H      -0.116700
      8 C3          -1.3920    -0.1590    -0.4260 cx         1 40H      -0.217700
      9 C2          -0.1670    -0.5340     0.3660 cx         1 40H      -0.071700
     10 C9           2.3290    -1.0790     0.4560 c          1 40H       0.910600
     11 N            1.1880    -0.4290    -1.6930 n8         1 40H      -0.876800
     12 C8          -2.6750    -0.9160    -0.1720 c          1 40H       0.944600
     13 O           -2.9110    -1.2760     1.0020 o          1 40H      -0.864800
     14 C            1.4410     1.2420     0.0820 c5         1 40H      -0.019400
     15 H2           0.7560     3.8590     0.8590 hc         1 40H       0.048700
     16 H3          -0.9740     3.4970     1.2850 hc         1 40H       0.048700
     17 H4          -1.4370     2.8650    -1.1140 hc         1 40H       0.048700
     18 H5           0.2940     3.2360    -1.5400 hc         1 40H       0.048700
     19 H6          -1.4580     0.8890     1.5410 hc         1 40H       0.082700
     20 H7          -1.2300     0.1670    -1.4470 hc         1 40H       0.070700
     21 H8          -0.2660    -1.3610     1.0570 hc         1 40H       0.108700
     22 H10          2.1540    -0.4760    -1.9990 hn         1 40H       0.324300
     23 H11          0.8070    -1.3450    -1.9010 hn         1 40H       0.324300
     24 H13          1.9410     1.3330     1.0510 hc         1 40H       0.029700
     25 H14          2.0760     1.7330    -0.6600 hc         1 40H       0.029700
     26 O3           3.3250    -1.3680    -0.2400 o          1 40H      -0.852800
@<TRIPOS>BOND
     1     1    12 1   
     2     2     4 1   
     3     2     6 1   
     4     2    15 1   
     5     2    16 1   
     6     3    10 1   
     7     4     6 1   
     8     4    17 1   
     9     4    18 1   
    10     5     9 1   
    11     5    10 1   
    12     5    11 1   
    13     5    14 1   
    14     6     7 1   
    15     6    14 1   
    16     7     8 1   
    17     7     9 1   
    18     7    19 1   
    19     8     9 1   
    20     8    12 1   
    21     8    20 1   
    22     9    21 1   
    23    10    26 1   
    24    11    22 1   
    25    11    23 1   
    26    12    13 1   
    27    14    24 1   
    28    14    25 1   
@<TRIPOS>SUBSTRUCTURE
     1 40H         1 TEMP              0 ****  ****    0 ROOT
