@<TRIPOS>MOLECULE
40H
   26    28     1     0     0
SMALL
No Charge or Current Charge


@<TRIPOS>ATOM
      1 O1          -2.5480    -1.8690    -0.6060 o          1 40H      -0.759500
      2 C7           0.0060     2.6950     0.8580 cx         1 40H      -0.149900
      3 O2           2.1310    -1.1370     1.7690 o          1 40H      -0.747500
      4 C6          -0.7650     2.8650    -0.3960 cx         1 40H      -0.149900
      5 C1           1.2650    -0.2210    -0.3550 c5         1 40H       0.054200
      6 C5           0.0800     1.5520    -0.2720 cx         1 40H      -0.036000
      7 C4          -1.0140     1.0600     0.7290 cx         1 40H      -0.116700
      8 C3          -1.3800     0.1780    -0.5340 cx         1 40H      -0.217700
      9 C2          -0.1800    -0.2220     0.2990 cx         1 40H      -0.071700
     10 C9           2.3710    -0.9180     0.5880 c          1 40H       0.700000
     11 N            1.2320    -0.7660    -1.7630 n8         1 40H      -0.987200
     12 C8          -2.6320    -0.6660    -0.4040 c          1 40H       0.734000
     13 O           -3.6870    -0.0980    -0.1630 o          1 40H      -0.759500
     14 C            1.5590     1.2630    -0.3080 c5         1 40H      -0.019400
     15 H2           0.8760     3.3450     0.9290 hc         1 40H       0.048700
     16 H3          -0.6040     2.8930     1.7570 hc         1 40H       0.048700
     17 H4          -1.8580     2.8720    -0.3670 hc         1 40H       0.048700
     18 H5          -0.3890     3.6000    -1.1030 hc         1 40H       0.048700
     19 H6          -1.0840     0.8710     1.8070 hc         1 40H       0.082700
     20 H7          -1.2660     0.4710    -1.5870 hc         1 40H       0.070700
     21 H8          -0.3570    -1.0990     0.9200 hc         1 40H       0.108700
     22 H10          2.2030    -0.8930    -2.0700 hn         1 40H       0.379500
     23 H11          0.8680    -1.7240    -1.7340 hn         1 40H       0.379500
     24 H13          2.1310     1.5500     0.5850 hc         1 40H       0.029700
     25 H14          2.0660     1.6500    -1.1990 hc         1 40H       0.029700
     26 O3           3.4180    -1.3050     0.0800 o          1 40H      -0.747500
@<TRIPOS>BOND
     1     1    12 1   
     2     2     4 1   
     3     2     6 1   
     4     2    15 1   
     5     2    16 1   
     6     3    10 1   
     7     4     6 1   
     8     4    17 1   
     9     4    18 1   
    10     5     9 1   
    11     5    10 1   
    12     5    11 1   
    13     5    14 1   
    14     6     7 1   
    15     6    14 1   
    16     7     8 1   
    17     7     9 1   
    18     7    19 1   
    19     8     9 1   
    20     8    12 1   
    21     8    20 1   
    22     9    21 1   
    23    10    26 1   
    24    11    22 1   
    25    11    23 1   
    26    12    13 1   
    27    14    24 1   
    28    14    25 1   
@<TRIPOS>SUBSTRUCTURE
     1 40H         1 TEMP              0 ****  ****    0 ROOT
