@<TRIPOS>MOLECULE
40I
   70    71     1     0     0
SMALL
bcc


@<TRIPOS>ATOM
      1 C26         20.0210    17.0140    30.7030 c          1 40I       0.610600
      2 C27         19.1700    17.6280    31.7310 cc         1 40I       0.160200
      3 C28         18.9810    18.9370    32.0400 cd         1 40I      -0.183300
      4 C29         18.0470    18.9600    33.1120 cd         1 40I      -0.284300
      5 C30         17.7420    17.6630    33.3690 cc         1 40I       0.259600
      6 O32         20.7060    17.7210    29.9760 o          1 40I      -0.602100
      7 O31         18.4160    16.8500    32.5400 os         1 40I      -0.327800
      8 N25         19.9980    15.6700    30.6380 ns         1 40I      -0.553900
      9 C21         20.7730    14.9180    29.6780 c3         1 40I       0.044700
     10 C20         19.9260    14.7100    28.4230 c          1 40I       0.651100
     11 O33         18.8470    14.1360    28.4770 o          1 40I      -0.613100
     12 C22         21.2130    13.5720    30.2720 c3         1 40I      -0.066700
     13 C24         21.9840    12.7510    29.2440 c3         1 40I      -0.093600
     14 C23         22.0650    13.7870    31.5190 c3         1 40I      -0.093600
     15 N19         20.4290    15.2070    27.2850 ns         1 40I      -0.544900
     16 C14         19.7490    15.0440    26.0230 c3         1 40I       0.041700
     17 C13         19.7940    13.5730    25.6110 c          1 40I       0.657100
     18 O34         20.8000    12.9020    25.7620 o          1 40I      -0.605100
     19 C15         20.3960    15.8900    24.9200 c3         1 40I      -0.082400
     20 C16         19.9510    17.3530    24.8730 c3         1 40I      -0.061700
     21 C17         20.6070    18.0390    23.6790 c3         1 40I      -0.090600
     22 C18         20.2380    18.1270    26.1560 c3         1 40I      -0.090600
     23 C07         18.4250     8.9290    27.4360 c6         1 40I      -0.093400
     24 C03         18.4830    11.7460    24.6130 c3         1 40I      -0.018300
     25 C06         18.6000    10.4370    27.4510 c6         1 40I      -0.076400
     26 C10         16.0670    10.5930    27.3890 c          1 40I       0.710500
     27 C04         17.3080    11.0700    25.3120 c3         1 40I      -0.074400
     28 C02         18.3830    11.7060    23.1010 c          1 40I       0.562900
     29 C05         17.3820    11.1340    26.8460 c6         1 40I      -0.139700
     30 C08         17.2290     8.5550    28.2870 c6         1 40I       0.116000
     31 N12         18.6680    13.1140    25.0320 ns         1 40I      -0.563900
     32 N09         16.0800     9.3880    27.9810 ns         1 40I      -0.574900
     33 H12         19.4480    19.7820    31.5620 ha         1 40I       0.176000
     34 H32         17.6550    19.8230    33.6230 ha         1 40I       0.166000
     35 H33         17.0880    17.1910    34.0840 h4         1 40I       0.056100
     36 H36         19.3610    15.1530    31.2260 hn         1 40I       0.339500
     37 H7          21.6670    15.4980    29.4350 h1         1 40I       0.081700
     38 H8          20.3110    13.0180    30.5530 hc         1 40I       0.063700
     39 H9          22.3020    11.8060    29.6840 hc         1 40I       0.041367
     40 H10         21.3950    12.5140    28.3580 hc         1 40I       0.041367
     41 H11         22.8820    13.2820    28.9180 hc         1 40I       0.041367
     42 H29         21.5340    14.3330    32.2980 hc         1 40I       0.041367
     43 H30         22.3690    12.8280    31.9380 hc         1 40I       0.041367
     44 H31         22.9720    14.3450    31.2750 hc         1 40I       0.041367
     45 H35         21.3440    15.6300    27.2900 hn         1 40I       0.333500
     46 H24         18.7070    15.3600    26.1410 h1         1 40I       0.077700
     47 H2          20.1450    15.4370    23.9570 hc         1 40I       0.054700
     48 H3          21.4870    15.8250    25.0060 hc         1 40I       0.054700
     49 H25         18.8670    17.3570    24.7120 hc         1 40I       0.044700
     50 H4          20.2590    19.0680    23.5760 hc         1 40I       0.037867
     51 H5          21.6930    18.0670    23.7940 hc         1 40I       0.037867
     52 H6          20.3850    17.5180    22.7460 hc         1 40I       0.037867
     53 H26         19.6830    17.7400    27.0100 hc         1 40I       0.037867
     54 H27         21.3010    18.0960    26.4060 hc         1 40I       0.037867
     55 H28         19.9590    19.1750    26.0350 hc         1 40I       0.037867
     56 H20         18.2920     8.5670    26.4130 hc         1 40I       0.051200
     57 H21         19.3090     8.4290    27.8340 hc         1 40I       0.051200
     58 H14         19.4150    11.2170    24.8450 h1         1 40I       0.100700
     59 H18         19.5120    10.7310    26.9310 hc         1 40I       0.057200
     60 H19         18.7270    10.7760    28.4840 hc         1 40I       0.057200
     61 H15         16.3800    11.5460    24.9870 hc         1 40I       0.067200
     62 H16         17.2580    10.0320    24.9770 hc         1 40I       0.067200
     63 H13         19.0760    12.4040    22.5950 h4         1 40I      -0.005800
     64 H17         17.4040    12.1870    27.1380 hc         1 40I       0.094700
     65 H22         16.9480     7.5130    28.1270 h1         1 40I       0.037700
     66 H23         17.4860     8.6570    29.3470 h1         1 40I       0.037700
     67 H1          17.8620    13.7200    24.9980 hn         1 40I       0.323500
     68 H34         15.1900     9.0760    28.3440 hn         1 40I       0.312500
     69 O01         17.6460    10.9890    22.4790 o          1 40I      -0.501100
     70 O11         15.0280    11.2290    27.2500 o          1 40I      -0.653500
@<TRIPOS>BOND
     1     1     2 1   
     2     1     6 2   
     3     1     8 1   
     4     2     3 2   
     5     2     7 1   
     6     3     4 1   
     7     3    33 1   
     8     4     5 2   
     9     4    34 1   
    10     5     7 1   
    11     5    35 1   
    12     8     9 1   
    13     8    36 1   
    14     9    10 1   
    15     9    12 1   
    16     9    37 1   
    17    10    11 2   
    18    10    15 1   
    19    12    13 1   
    20    12    14 1   
    21    12    38 1   
    22    13    39 1   
    23    13    40 1   
    24    13    41 1   
    25    14    42 1   
    26    14    43 1   
    27    14    44 1   
    28    15    16 1   
    29    15    45 1   
    30    16    17 1   
    31    16    19 1   
    32    16    46 1   
    33    17    18 2   
    34    17    31 1   
    35    19    20 1   
    36    19    47 1   
    37    19    48 1   
    38    20    21 1   
    39    20    22 1   
    40    20    49 1   
    41    21    50 1   
    42    21    51 1   
    43    21    52 1   
    44    22    53 1   
    45    22    54 1   
    46    22    55 1   
    47    23    25 1   
    48    23    30 1   
    49    23    56 1   
    50    23    57 1   
    51    24    27 1   
    52    24    28 1   
    53    24    31 1   
    54    24    58 1   
    55    25    29 1   
    56    25    59 1   
    57    25    60 1   
    58    26    29 1   
    59    26    32 1   
    60    26    70 2   
    61    27    29 1   
    62    27    61 1   
    63    27    62 1   
    64    28    63 1   
    65    28    69 2   
    66    29    64 1   
    67    30    32 1   
    68    30    65 1   
    69    30    66 1   
    70    31    67 1   
    71    32    68 1   
@<TRIPOS>SUBSTRUCTURE
     1 40I         1 TEMP              0 ****  ****    0 ROOT
