@<TRIPOS>MOLECULE
40I
   70    71     1     0     0
SMALL
No Charge or Current Charge


@<TRIPOS>ATOM
      1 C26         20.6060    17.2800    31.3900 c          1 40I       0.543600
      2 C27         19.7810    18.1960    32.2210 cc         1 40I       0.050500
      3 C28         20.2460    19.2050    33.0220 cd         1 40I      -0.100000
      4 C29         19.1160    19.8060    33.6140 cd         1 40I      -0.201000
      5 C30         18.0100    19.1420    33.1530 cc         1 40I       0.149900
      6 O32         21.8280    17.3190    31.3200 o          1 40I      -0.602100
      7 O31         18.4010    18.1420    32.2890 os         1 40I      -0.239000
      8 N25         19.8540    16.3630    30.6860 ns         1 40I      -0.486900
      9 C21         20.3930    15.3220    29.7810 c3         1 40I       0.044700
     10 C20         19.5220    15.2850    28.4920 c          1 40I       0.584100
     11 O33         18.3110    15.4750    28.5020 o          1 40I      -0.613100
     12 C22         20.4500    13.9340    30.5000 c3         1 40I      -0.066700
     13 C24         20.8820    12.7800    29.5600 c3         1 40I      -0.093600
     14 C23         21.3460    13.9550    31.7640 c3         1 40I      -0.093600
     15 N19         20.2120    15.0330    27.3230 ns         1 40I      -0.477900
     16 C14         19.5900    14.8660    25.9900 c3         1 40I       0.041700
     17 C13         19.7810    13.3940    25.5280 c          1 40I       0.590100
     18 O34         20.7260    12.7010    25.8840 o          1 40I      -0.605100
     19 C15         20.1880    15.8520    24.9470 c3         1 40I      -0.082400
     20 C16         19.6840    17.3250    25.0120 c3         1 40I      -0.061700
     21 C17         20.1480    18.1120    23.7650 c3         1 40I      -0.090600
     22 C18         20.1000    18.0720    26.3020 c3         1 40I      -0.090600
     23 C07         18.8070     8.3520    26.9060 c6         1 40I      -0.093400
     24 C03         18.6800    11.5010    24.2410 c3         1 40I      -0.018300
     25 C06         19.0530     9.8690    27.0280 c6         1 40I      -0.076400
     26 C10         16.4840    10.1200    27.2330 c          1 40I       0.568000
     27 C04         17.5870    10.7450    25.0550 c3         1 40I      -0.074400
     28 C02         18.4350    11.4620    22.7100 c          1 40I       0.562900
     29 C05         17.7890    10.6770    26.6120 c6         1 40I      -0.139700
     30 C08         17.6290     7.9140    27.8010 c6         1 40I       0.116000
     31 N12         18.7960    12.9100    24.6890 ns         1 40I      -0.496900
     32 N09         16.5020     8.8600    27.7890 ns         1 40I      -0.507900
     33 H12         21.2860    19.4820    33.1670 ha         1 40I       0.158000
     34 H32         19.1130    20.6400    34.3090 ha         1 40I       0.148000
     35 H33         16.9520    19.2670    33.3440 h4         1 40I       0.056100
     36 H36         18.8470    16.4340    30.7900 hn         1 40I       0.339500
     37 H7          21.4090    15.6070    29.4760 h1         1 40I       0.081700
     38 H8          19.4310    13.6990    30.8360 hc         1 40I       0.063700
     39 H9          20.9530    11.8350    30.1130 hc         1 40I       0.041367
     40 H10         20.1540    12.6270    28.7550 hc         1 40I       0.041367
     41 H11         21.8620    12.9840    29.1120 hc         1 40I       0.041367
     42 H29         20.9630    14.6610    32.5110 hc         1 40I       0.041367
     43 H30         21.3770    12.9660    32.2360 hc         1 40I       0.041367
     44 H31         22.3730    14.2450    31.5090 hc         1 40I       0.041367
     45 H35         21.2060    14.8570    27.4080 hn         1 40I       0.333500
     46 H24         18.5090    15.0400    26.0610 h1         1 40I       0.077700
     47 H2          19.9400    15.4670    23.9490 hc         1 40I       0.054700
     48 H3          21.2830    15.8320    25.0100 hc         1 40I       0.054700
     49 H25         18.5870    17.3030    24.9860 hc         1 40I       0.044700
     50 H4          19.7450    19.1330    23.7760 hc         1 40I       0.037867
     51 H5          21.2420    18.1760    23.7280 hc         1 40I       0.037867
     52 H6          19.8010    17.6270    22.8450 hc         1 40I       0.037867
     53 H26         19.5800    17.6730    27.1780 hc         1 40I       0.037867
     54 H27         21.1810    17.9950    26.4700 hc         1 40I       0.037867
     55 H28         19.8410    19.1360    26.2340 hc         1 40I       0.037867
     56 H20         18.5960     8.0860    25.8620 hc         1 40I       0.051200
     57 H21         19.7110     7.7960    27.1880 hc         1 40I       0.051200
     58 H14         19.6440    10.9970    24.3860 h1         1 40I       0.100700
     59 H18         19.9290    10.1590    26.4360 hc         1 40I       0.057200
     60 H19         19.3050    10.1070    28.0710 hc         1 40I       0.057200
     61 H15         16.6260    11.2340    24.8440 hc         1 40I       0.067200
     62 H16         17.4880     9.7310    24.6490 hc         1 40I       0.067200
     63 H13         19.3270    11.6950    22.0870 h4         1 40I      -0.005800
     64 H17         17.8680    11.7190    26.9490 hc         1 40I       0.094700
     65 H22         17.2710     6.9220    27.4920 h1         1 40I       0.037700
     66 H23         17.9800     7.8330    28.8400 h1         1 40I       0.037700
     67 H1          18.0540    13.5580    24.4420 hn         1 40I       0.323500
     68 H34         15.6300     8.5600    28.2100 hn         1 40I       0.312500
     69 O01         17.3560    11.2000    22.1860 o          1 40I      -0.501100
     70 O11         15.4690    10.7950    27.3020 o          1 40I      -0.578000
@<TRIPOS>BOND
     1     1     2 1   
     2     1     6 2   
     3     1     8 1   
     4     2     3 2   
     5     2     7 1   
     6     3     4 1   
     7     3    33 1   
     8     4     5 2   
     9     4    34 1   
    10     5     7 1   
    11     5    35 1   
    12     8     9 1   
    13     8    36 1   
    14     9    10 1   
    15     9    12 1   
    16     9    37 1   
    17    10    11 2   
    18    10    15 1   
    19    12    13 1   
    20    12    14 1   
    21    12    38 1   
    22    13    39 1   
    23    13    40 1   
    24    13    41 1   
    25    14    42 1   
    26    14    43 1   
    27    14    44 1   
    28    15    16 1   
    29    15    45 1   
    30    16    17 1   
    31    16    19 1   
    32    16    46 1   
    33    17    18 2   
    34    17    31 1   
    35    19    20 1   
    36    19    47 1   
    37    19    48 1   
    38    20    21 1   
    39    20    22 1   
    40    20    49 1   
    41    21    50 1   
    42    21    51 1   
    43    21    52 1   
    44    22    53 1   
    45    22    54 1   
    46    22    55 1   
    47    23    25 1   
    48    23    30 1   
    49    23    56 1   
    50    23    57 1   
    51    24    27 1   
    52    24    28 1   
    53    24    31 1   
    54    24    58 1   
    55    25    29 1   
    56    25    59 1   
    57    25    60 1   
    58    26    29 1   
    59    26    32 1   
    60    26    70 2   
    61    27    29 1   
    62    27    61 1   
    63    27    62 1   
    64    28    63 1   
    65    28    69 2   
    66    29    64 1   
    67    30    32 1   
    68    30    65 1   
    69    30    66 1   
    70    31    67 1   
    71    32    68 1   
@<TRIPOS>SUBSTRUCTURE
     1 40I         1 TEMP              0 ****  ****    0 ROOT
