@<TRIPOS>MOLECULE
40K
   35    38     1     0     0
SMALL
No Charge or Current Charge


@<TRIPOS>ATOM
      1 C10          3.0680    -0.2920     0.2100 cc         1 40K       0.493000
      2 C13          4.5400    -3.4700    -0.9920 cd         1 40K      -0.140000
      3 C20         -1.8490    -1.6400     0.6580 ca         1 40K      -0.066000
      4 C21         -3.0520    -2.3650     0.6980 ca         1 40K      -0.119500
      5 C22         -4.2540    -1.7540     0.3140 ca         1 40K       0.128000
      6 C24         -4.2540    -0.4210    -0.1200 ca         1 40K      -0.119500
      7 O01         -1.9310     4.4600    -1.2230 o          1 40K      -0.719000
      8 O03          0.1630     4.9400    -1.0620 o          1 40K      -0.719000
      9 C04         -0.4220     2.6430    -1.1800 c3         1 40K      -0.218400
     10 C05         -0.5450     2.0100     0.2450 c6         1 40K      -0.010000
     11 S06          0.7880     2.6410     1.3700 ss         1 40K      -0.228300
     12 C07          2.0750     1.5490     0.8870 cc         1 40K       0.466800
     13 N08          3.3430     1.6610     1.2340 nd         1 40K      -0.332000
     14 N09          3.9740     0.5080     0.7820 nd         1 40K      -0.362000
     15 C11          3.2970    -1.5980    -0.3630 cc         1 40K      -0.244500
     16 C12          4.5380    -2.1930    -0.3700 cd         1 40K      -0.104000
     17 C14          3.3100    -3.8530    -1.4640 cc         1 40K      -0.274000
     18 S15          2.0930    -2.6190    -1.1460 ss         1 40K       0.274000
     19 N16          1.8440     0.3590     0.2520 na         1 40K      -0.118600
     20 N17          0.5780    -0.2100     0.0280 n2         1 40K      -0.530100
     21 C18         -0.5290     0.4650     0.1690 ce         1 40K       0.459900
     22 C19         -1.8330    -0.2850     0.2460 ca         1 40K      -0.124900
     23 C25         -3.0530     0.3090    -0.1620 ca         1 40K      -0.066000
     24 H1           5.4320    -4.0840    -1.0860 ha         1 40K       0.125000
     25 H2          -0.9280    -2.1360     0.9600 ha         1 40K       0.143500
     26 H3          -3.0520    -3.4010     1.0260 ha         1 40K       0.127500
     27 H4          -5.1850     0.0460    -0.4300 ha         1 40K       0.127500
     28 H6          -1.1660     2.1270    -1.7980 hc         1 40K       0.040200
     29 H7           0.6050     2.4840    -1.5280 hc         1 40K       0.040200
     30 H8          -1.4980     2.3340     0.6860 h1         1 40K       0.124700
     31 H9           5.4300    -1.7400     0.0560 ha         1 40K       0.150000
     32 H10          3.0240    -4.7640    -1.9740 h4         1 40K       0.140000
     33 H11         -3.0860     1.3340    -0.5240 ha         1 40K       0.143500
     34 C02         -0.7540     4.1410    -1.1670 c          1 40K       0.730000
     35 Cl23        -5.7580    -2.6640     0.3620 cl         1 40K      -0.216000
@<TRIPOS>BOND
     1     1    14 2   
     2     1    15 1   
     3     1    19 1   
     4     2    16 1   
     5     2    17 2   
     6     2    24 1   
     7     3     4 ar  
     8     3    22 ar  
     9     3    25 1   
    10     4     5 ar  
    11     4    26 1   
    12     5     6 ar  
    13     5    35 1   
    14     6    23 ar  
    15     6    27 1   
    16     7    34 1   
    17     8    34 1   
    18     9    10 1   
    19     9    28 1   
    20     9    29 1   
    21     9    34 1   
    22    10    11 1   
    23    10    21 1   
    24    10    30 1   
    25    11    12 1   
    26    12    13 2   
    27    12    19 1   
    28    13    14 1   
    29    15    16 2   
    30    15    18 1   
    31    16    31 1   
    32    17    18 1   
    33    17    32 1   
    34    19    20 1   
    35    20    21 2   
    36    21    22 1   
    37    22    23 ar  
    38    23    33 1   
@<TRIPOS>SUBSTRUCTURE
     1 40K         1 TEMP              0 ****  ****    0 ROOT
