@<TRIPOS>MOLECULE
40K
   35    38     1     0     0
SMALL
abcg2


@<TRIPOS>ATOM
      1 C10          2.9630    -0.1810     0.2760 cc         1 40K       0.493000
      2 C13          4.3710    -3.3450    -1.0350 cd         1 40K      -0.140000
      3 C20         -1.7980    -1.6900     0.5340 ca         1 40K      -0.066000
      4 C21         -2.9740    -2.4110     0.4540 ca         1 40K      -0.119500
      5 C22         -4.1480    -1.7590     0.1020 ca         1 40K       0.128000
      6 C24         -4.1550    -0.4000    -0.1670 ca         1 40K      -0.119500
      7 O01         -1.3630     4.4720    -0.3560 o          1 40K      -0.719000
      8 O03         -0.0360     4.5770    -2.1480 o          1 40K      -0.719000
      9 C04         -0.3120     2.4730    -1.0960 c3         1 40K      -0.218400
     10 C05         -0.5300     1.9360     0.3100 c6         1 40K      -0.010000
     11 S06          0.6790     2.6260     1.4930 ss         1 40K      -0.228300
     12 C07          1.9870     1.6190     0.9880 cc         1 40K       0.466800
     13 N08          3.2700     1.8130     1.0600 nd         1 40K      -0.332000
     14 N09          3.8810     0.6850     0.6110 nd         1 40K      -0.362000
     15 C11          3.2000    -1.4960    -0.2660 cc         1 40K      -0.244500
     16 C12          4.4370    -2.0390    -0.4960 cd         1 40K      -0.104000
     17 C14          3.0870    -3.7700    -1.2060 cc         1 40K      -0.274000
     18 S15          1.9450    -2.5970    -0.7120 ss         1 40K       0.274000
     19 N16          1.7370     0.3760     0.4940 na         1 40K      -0.118600
     20 N17          0.5600    -0.2720     0.3770 n2         1 40K      -0.530100
     21 C18         -0.5100     0.4310     0.3470 ce         1 40K       0.459900
     22 C19         -1.7770    -0.3160     0.2710 ca         1 40K      -0.124900
     23 C25         -2.9710     0.3140    -0.0770 ca         1 40K      -0.066000
     24 H1           5.2380    -3.9390    -1.2820 ha         1 40K       0.125000
     25 H2          -0.8870    -2.1990     0.8160 ha         1 40K       0.143500
     26 H3          -2.9760    -3.4710     0.6670 ha         1 40K       0.127500
     27 H4          -5.0710     0.1030    -0.4430 ha         1 40K       0.127500
     28 H6          -0.9970     1.9590    -1.7810 hc         1 40K       0.040200
     29 H7           0.6930     2.2390    -1.4550 hc         1 40K       0.040200
     30 H8          -1.4780     2.3090     0.6950 h1         1 40K       0.124700
     31 H9           5.3580    -1.5140    -0.2870 ha         1 40K       0.150000
     32 H10          2.7480    -4.7180    -1.5950 h4         1 40K       0.140000
     33 H11         -3.0070     1.3720    -0.3000 ha         1 40K       0.143500
     34 C02         -0.5890     3.9900    -1.2020 c          1 40K       0.730000
     35 CL23        -5.6210    -2.6540     0.0040 cl         1 40K      -0.216000
@<TRIPOS>BOND
     1     1    14 2   
     2     1    15 1   
     3     1    19 1   
     4     2    16 1   
     5     2    17 2   
     6     2    24 1   
     7     3     4 ar  
     8     3    22 ar  
     9     3    25 1   
    10     4     5 ar  
    11     4    26 1   
    12     5     6 ar  
    13     5    35 1   
    14     6    23 ar  
    15     6    27 1   
    16     7    34 1   
    17     8    34 1   
    18     9    10 1   
    19     9    28 1   
    20     9    29 1   
    21     9    34 1   
    22    10    11 1   
    23    10    21 1   
    24    10    30 1   
    25    11    12 1   
    26    12    13 2   
    27    12    19 1   
    28    13    14 1   
    29    15    16 2   
    30    15    18 1   
    31    16    31 1   
    32    17    18 1   
    33    17    32 1   
    34    19    20 1   
    35    20    21 2   
    36    21    22 1   
    37    22    23 ar  
    38    23    33 1   
@<TRIPOS>SUBSTRUCTURE
     1 40K         1 TEMP              0 ****  ****    0 ROOT
