@<TRIPOS>MOLECULE
40L
   49    53     1     0     0
SMALL
No Charge or Current Charge


@<TRIPOS>ATOM
      1 C13         -1.4910    -3.0840     0.9560 ca         1 40L      -0.088500
      2 C15         -0.3880    -4.9400    -0.1710 ca         1 40L      -0.098000
      3 C17         -0.4130    -2.7330    -1.2000 ca         1 40L      -0.088500
      4 C20          0.5110    -0.7270     2.8940 c3         1 40L      -0.086400
      5 C21          1.6220    -1.5540     3.5790 c3         1 40L      -0.087100
      6 C24          3.4040     1.3700    -0.4750 ca         1 40L      -0.248200
      7 C01         -4.1380     3.1620    -0.8660 ca         1 40L      -0.188000
      8 C02         -3.2320     3.8760    -0.0730 ca         1 40L      -0.045000
      9 C03         -2.1410     3.2060     0.4980 ca         1 40L      -0.130000
     10 C04         -1.9350     1.8290     0.2910 ca         1 40L       0.225400
     11 C05         -2.8490     1.1170    -0.5030 ca         1 40L      -0.250600
     12 C06         -3.9500     1.7900    -1.0800 ca         1 40L       0.250000
     13 F07         -4.8510     1.1420    -1.8510 f          1 40L      -0.150000
     14 N08         -0.8090     1.2730     0.9040 nc         1 40L      -0.663100
     15 C09         -2.6190    -0.3340    -0.6950 c          1 40L       0.585600
     16 O10         -3.3580    -1.0550    -1.3520 o          1 40L      -0.495000
     17 N11         -1.4970    -0.8420    -0.0610 n          1 40L      -0.252500
     18 C12         -1.1290    -2.2260    -0.1000 ca         1 40L       0.017600
     19 C14         -1.1170    -4.4390     0.9220 ca         1 40L      -0.107000
     20 C16         -0.0390    -4.0870    -1.2330 ca         1 40L      -0.107000
     21 C18         -0.6180    -0.0410     0.6830 cd         1 40L       0.513900
     22 C19          0.6760    -0.5970     1.3570 c3         1 40L       0.203200
     23 N22          1.8810     0.2380     1.0590 nu         1 40L      -0.898100
     24 C23          2.5270     0.3210    -0.1670 ca         1 40L       0.406900
     25 C25          4.0090     1.4260    -1.7010 ca         1 40L       0.252000
     26 N26          3.7780     0.4820    -2.6340 nb         1 40L      -0.144000
     27 C27          2.9210    -0.5040    -2.2750 ca         1 40L       0.146900
     28 N28          2.2820    -0.6320    -1.0860 nb         1 40L      -0.278000
     29 N29          3.8320     2.4530     0.2470 na         1 40L      -0.291600
     30 C30          4.7040     3.1580    -0.5740 cc         1 40L       0.430700
     31 N31          4.8310     2.5520    -1.7740 nd         1 40L      -0.638700
     32 H1          -2.0600    -2.7030     1.8010 ha         1 40L       0.129500
     33 H2          -0.0980    -5.9880    -0.1970 ha         1 40L       0.117000
     34 H3          -0.1420    -2.0770    -2.0240 ha         1 40L       0.129500
     35 H4          -0.4510    -1.2120     3.1040 hc         1 40L       0.055700
     36 H5           0.4610     0.2690     3.3500 hc         1 40L       0.055700
     37 H6           1.6660    -2.5670     3.1590 hc         1 40L       0.040033
     38 H7           2.6030    -1.0820     3.4470 hc         1 40L       0.040033
     39 H8           1.4260    -1.6380     4.6540 hc         1 40L       0.040033
     40 H9          -4.9890     3.6680    -1.3150 ha         1 40L       0.138000
     41 H10         -3.3720     4.9410     0.0990 ha         1 40L       0.121000
     42 H11         -1.4380     3.7640     1.1110 ha         1 40L       0.133000
     43 H12         -1.3930    -5.1000     1.7400 ha         1 40L       0.119000
     44 H13          0.5210    -4.4760    -2.0810 ha         1 40L       0.119000
     45 H14          0.8820    -1.6090     0.9880 h1         1 40L       0.104700
     46 H15          1.9820     1.0720     1.6320 hn         1 40L       0.488000
     47 H16          2.7250    -1.2730    -3.0190 h5         1 40L       0.048100
     48 H17          3.5910     2.7070     1.1970 hn         1 40L       0.360000
     49 H18          5.1980     4.0690    -0.2540 h5         1 40L       0.066800
@<TRIPOS>BOND
     1     1    18 ar  
     2     1    19 ar  
     3     1    32 1   
     4     2    19 ar  
     5     2    20 ar  
     6     2    33 1   
     7     3    18 ar  
     8     3    20 ar  
     9     3    34 1   
    10     4     5 1   
    11     4    22 1   
    12     4    35 1   
    13     4    36 1   
    14     5    37 1   
    15     5    38 1   
    16     5    39 1   
    17     6    24 ar  
    18     6    25 ar  
    19     6    29 1   
    20     7     8 ar  
    21     7    12 ar  
    22     7    40 1   
    23     8     9 ar  
    24     8    41 1   
    25     9    10 ar  
    26     9    42 1   
    27    10    11 ar  
    28    10    14 1   
    29    11    12 ar  
    30    11    15 1   
    31    12    13 1   
    32    14    21 2   
    33    15    16 2   
    34    15    17 1   
    35    17    18 1   
    36    17    21 1   
    37    19    43 1   
    38    20    44 1   
    39    21    22 1   
    40    22    23 1   
    41    22    45 1   
    42    23    24 1   
    43    23    46 1   
    44    24    28 ar  
    45    25    26 ar  
    46    25    31 1   
    47    26    27 ar  
    48    27    28 ar  
    49    27    47 1   
    50    29    30 1   
    51    29    48 1   
    52    30    31 2   
    53    30    49 1   
@<TRIPOS>SUBSTRUCTURE
     1 40L         1 TEMP              0 ****  ****    0 ROOT
