@<TRIPOS>MOLECULE
40L
   49    53     1     0     0
SMALL
abcg2


@<TRIPOS>ATOM
      1 C13         -1.6420    -3.1250     0.9880 ca         1 40L      -0.088500
      2 C15         -0.6390    -5.0240    -0.0970 ca         1 40L      -0.098000
      3 C17         -0.3600    -2.8250    -1.0350 ca         1 40L      -0.088500
      4 C20          0.5090    -0.8470     2.7800 c3         1 40L      -0.086400
      5 C21          1.6710    -1.5260     3.4910 c3         1 40L      -0.087100
      6 C24          3.3750     1.5320    -0.3350 ca         1 40L      -0.248200
      7 C01         -4.0380     2.9830    -0.9510 ca         1 40L      -0.188000
      8 C02         -3.0450     3.7570    -0.3480 ca         1 40L      -0.045000
      9 C03         -1.9170     3.1740     0.1850 ca         1 40L      -0.130000
     10 C04         -1.7560     1.7850     0.1290 ca         1 40L       0.225400
     11 C05         -2.7430     0.9860    -0.4760 ca         1 40L      -0.250600
     12 C06         -3.8730     1.6210    -1.0050 ca         1 40L       0.250000
     13 F07         -4.8320     0.8970    -1.5820 f          1 40L      -0.150000
     14 N08         -0.6270     1.2390     0.6760 nc         1 40L      -0.663100
     15 C09         -2.5500    -0.4560    -0.5300 c          1 40L       0.585600
     16 O10         -3.3080    -1.2600    -1.0300 o          1 40L      -0.495000
     17 N11         -1.3590    -0.8910     0.0590 n          1 40L      -0.252500
     18 C12         -1.1130    -2.3020     0.0060 ca         1 40L       0.017600
     19 C14         -1.3990    -4.4910     0.9350 ca         1 40L      -0.107000
     20 C16         -0.1220    -4.1910    -1.0810 ca         1 40L      -0.107000
     21 C18         -0.4570    -0.0290     0.6280 cd         1 40L       0.513900
     22 C19          0.7840    -0.6010     1.2950 c3         1 40L       0.203200
     23 N22          1.9000     0.2950     1.1410 nu         1 40L      -0.898100
     24 C23          2.3980     0.5600    -0.0870 ca         1 40L       0.406900
     25 C25          3.8360     1.6970    -1.6400 ca         1 40L       0.252000
     26 N26          3.3950     0.9670    -2.6730 nb         1 40L      -0.144000
     27 C27          2.4840     0.0820    -2.3340 ca         1 40L       0.146900
     28 N28          1.9690    -0.1510    -1.1240 nb         1 40L      -0.278000
     29 N29          4.0660     2.4500     0.4080 na         1 40L      -0.291600
     30 C30          4.8790     3.0990    -0.4490 cc         1 40L       0.430700
     31 N31          4.7760     2.6830    -1.6860 nd         1 40L      -0.638700
     32 H1          -2.2390    -2.7040     1.7870 ha         1 40L       0.129500
     33 H2          -0.4490    -6.0880    -0.1350 ha         1 40L       0.117000
     34 H3           0.0500    -2.1670    -1.7880 ha         1 40L       0.129500
     35 H4          -0.3820    -1.4710     2.8660 hc         1 40L       0.055700
     36 H5           0.2630     0.1040     3.2610 hc         1 40L       0.055700
     37 H6           1.9440    -2.4570     2.9910 hc         1 40L       0.040033
     38 H7           2.5580    -0.8940     3.5260 hc         1 40L       0.040033
     39 H8           1.3970    -1.7680     4.5170 hc         1 40L       0.040033
     40 H9          -4.9250     3.4390    -1.3690 ha         1 40L       0.138000
     41 H10         -3.1700     4.8310    -0.3030 ha         1 40L       0.121000
     42 H11         -1.1460     3.7690     0.6540 ha         1 40L       0.133000
     43 H12         -1.8070    -5.1360     1.7020 ha         1 40L       0.119000
     44 H13          0.4680    -4.6040    -1.8880 ha         1 40L       0.119000
     45 H14          1.0480    -1.5490     0.8270 h1         1 40L       0.104700
     46 H15          2.0100     1.0070     1.8470 hn         1 40L       0.488000
     47 H16          2.0900    -0.5400    -3.1310 h5         1 40L       0.048100
     48 H17          4.0050     2.6240     1.3990 hn         1 40L       0.360000
     49 H18          5.5390     3.8830    -0.1090 h5         1 40L       0.066800
@<TRIPOS>BOND
     1     1    18 ar  
     2     1    19 ar  
     3     1    32 1   
     4     2    19 ar  
     5     2    20 ar  
     6     2    33 1   
     7     3    18 ar  
     8     3    20 ar  
     9     3    34 1   
    10     4     5 1   
    11     4    22 1   
    12     4    35 1   
    13     4    36 1   
    14     5    37 1   
    15     5    38 1   
    16     5    39 1   
    17     6    24 ar  
    18     6    25 ar  
    19     6    29 1   
    20     7     8 ar  
    21     7    12 ar  
    22     7    40 1   
    23     8     9 ar  
    24     8    41 1   
    25     9    10 ar  
    26     9    42 1   
    27    10    11 ar  
    28    10    14 1   
    29    11    12 ar  
    30    11    15 1   
    31    12    13 1   
    32    14    21 2   
    33    15    16 2   
    34    15    17 1   
    35    17    18 1   
    36    17    21 1   
    37    19    43 1   
    38    20    44 1   
    39    21    22 1   
    40    22    23 1   
    41    22    45 1   
    42    23    24 1   
    43    23    46 1   
    44    24    28 ar  
    45    25    26 ar  
    46    25    31 1   
    47    26    27 ar  
    48    27    28 ar  
    49    27    47 1   
    50    29    30 1   
    51    29    48 1   
    52    30    31 2   
    53    30    49 1   
@<TRIPOS>SUBSTRUCTURE
     1 40L         1 TEMP              0 ****  ****    0 ROOT
