@<TRIPOS>MOLECULE
40M
   59    62     1     0     0
SMALL
abcg2


@<TRIPOS>ATOM
      1 O           -6.1260    -1.8020     2.0340 o          1 40M      -0.580100
      2 C6          -5.5380    -1.8930     0.9730 c          1 40M       0.609100
      3 C7          -4.8660    -3.1690     0.5110 c3         1 40M      -0.159400
      4 C8          -5.4100    -4.4140     1.1880 c3         1 40M      -0.077100
      5 N           -5.3950    -0.8620     0.0960 ns         1 40M      -0.145000
      6 C4          -5.7740     0.4700     0.2480 ca         1 40M       0.010000
      7 C5          -6.8130     0.8850     1.0810 ca         1 40M      -0.130000
      8 C3          -7.1490     2.2280     1.1360 ca         1 40M      -0.081000
      9 C1          -6.4710     3.1680     0.3770 ca         1 40M      -0.133000
     10 C           -5.4270     2.7770    -0.4560 ca         1 40M      -0.056300
     11 C25         -4.6720     3.7840    -1.2720 c3         1 40M      -0.049800
     12 C2          -5.0870     1.4260    -0.5130 ca         1 40M       0.222000
     13 N1          -4.0460     1.0000    -1.3720 nu         1 40M      -0.954900
     14 C12         -2.7640     0.8000    -0.9580 ca         1 40M       0.374900
     15 N3          -2.5680     0.7870     0.3850 nb         1 40M      -0.203000
     16 C11         -1.3510     0.5800     0.7930 ca         1 40M       0.171900
     17 C9          -0.2670     0.3770    -0.0890 ca         1 40M      -0.199000
     18 C13          1.0550     0.1660     0.3410 ca         1 40M      -0.021000
     19 N2          -1.8500     0.6220    -1.8830 nb         1 40M      -0.256000
     20 C10         -0.5870     0.4080    -1.4640 ca         1 40M       0.085000
     21 C15          0.4550     0.2170    -2.3970 ca         1 40M      -0.115000
     22 C16          1.7350     0.0110    -1.9580 ca         1 40M      -0.045000
     23 C14          2.0530    -0.0150    -0.5800 cp         1 40M      -0.067000
     24 C22          3.4530    -0.2280    -0.1490 cp         1 40M       0.050000
     25 C21          4.2130     0.8250     0.3500 ca         1 40M       0.049000
     26 CL1          3.5460     2.4150     0.4560 cl         1 40M      -0.169000
     27 C20          4.0370    -1.4860    -0.2380 ca         1 40M       0.049000
     28 CL           3.1270    -2.8260    -0.8360 cl         1 40M      -0.169000
     29 C18          5.3560    -1.7030     0.1650 ca         1 40M       0.192100
     30 O1           5.8260    -2.9470     0.0420 os         1 40M      -0.320100
     31 C23          7.1510    -3.2270     0.4620 c3         1 40M       0.147900
     32 C17          6.0960    -0.6370     0.6660 ca         1 40M      -0.283000
     33 C19          5.5320     0.6310     0.7640 ca         1 40M       0.192100
     34 O2           6.1790     1.7000     1.2330 os         1 40M      -0.320100
     35 C24          7.5230     1.5570     1.6600 c3         1 40M       0.147900
     36 H1          -4.9520    -3.2550    -0.5750 hc         1 40M       0.058700
     37 H2          -3.7960    -3.0670     0.7170 hc         1 40M       0.058700
     38 H3          -4.8870    -5.2960     0.8190 hc         1 40M       0.043367
     39 H4          -5.2760    -4.3770     2.2680 hc         1 40M       0.043367
     40 H5          -6.4730    -4.5480     0.9850 hc         1 40M       0.043367
     41 H6          -4.8390    -1.0480    -0.7270 hn         1 40M       0.159000
     42 H7          -7.3640     0.1720     1.6720 ha         1 40M       0.146000
     43 H8          -7.9600     2.5410     1.7800 ha         1 40M       0.116000
     44 H9          -6.7470     4.2130     0.4340 ha         1 40M       0.115000
     45 H10         -3.5980     3.7300    -1.0860 hc         1 40M       0.045033
     46 H11         -4.8180     3.6310    -2.3420 hc         1 40M       0.045033
     47 H12         -4.9990     4.7960    -1.0380 hc         1 40M       0.045033
     48 H13         -4.1620     1.1410    -2.3650 hn         1 40M       0.508000
     49 H14         -1.1820     0.5700     1.8660 h4         1 40M       0.027100
     50 H15          1.2710     0.1490     1.4030 ha         1 40M       0.124000
     51 H16          0.2290     0.2410    -3.4550 ha         1 40M       0.134000
     52 H17          2.5290    -0.1270    -2.6820 ha         1 40M       0.123000
     53 H18          7.3110    -4.2850     0.2740 h1         1 40M       0.045367
     54 H19          7.8870    -2.6510    -0.1040 h1         1 40M       0.045367
     55 H20          7.2870    -3.0330     1.5280 h1         1 40M       0.045367
     56 H21          7.1170    -0.7950     0.9840 ha         1 40M       0.127000
     57 H22          8.1750     1.2390     0.8430 h1         1 40M       0.045367
     58 H23          7.8390     2.5380     2.0020 h1         1 40M       0.045367
     59 H24          7.6120     0.8480     2.4860 h1         1 40M       0.045367
@<TRIPOS>BOND
     1     1     2 2   
     2     2     3 1   
     3     2     5 1   
     4     3     4 1   
     5     3    36 1   
     6     3    37 1   
     7     4    38 1   
     8     4    39 1   
     9     4    40 1   
    10     5     6 1   
    11     5    41 1   
    12     6     7 ar  
    13     6    12 ar  
    14     7     8 ar  
    15     7    42 1   
    16     8     9 ar  
    17     8    43 1   
    18     9    10 ar  
    19     9    44 1   
    20    10    11 1   
    21    10    12 ar  
    22    11    45 1   
    23    11    46 1   
    24    11    47 1   
    25    12    13 1   
    26    13    14 1   
    27    13    48 1   
    28    14    15 ar  
    29    14    19 ar  
    30    15    16 ar  
    31    16    17 ar  
    32    16    49 1   
    33    17    18 ar  
    34    17    20 ar  
    35    18    23 ar  
    36    18    50 1   
    37    19    20 ar  
    38    20    21 ar  
    39    21    22 ar  
    40    21    51 1   
    41    22    23 ar  
    42    22    52 1   
    43    23    24 1   
    44    24    25 ar  
    45    24    27 ar  
    46    25    26 1   
    47    25    33 ar  
    48    27    28 1   
    49    27    29 ar  
    50    29    30 1   
    51    29    32 ar  
    52    30    31 1   
    53    31    53 1   
    54    31    54 1   
    55    31    55 1   
    56    32    33 ar  
    57    32    56 1   
    58    33    34 1   
    59    34    35 1   
    60    35    57 1   
    61    35    58 1   
    62    35    59 1   
@<TRIPOS>SUBSTRUCTURE
     1 40M         1 TEMP              0 ****  ****    0 ROOT
