@<TRIPOS>MOLECULE
40M
   59    62     1     0     0
SMALL
No Charge or Current Charge


@<TRIPOS>ATOM
      1 O           -6.0120    -1.7330     2.4280 o          1 40M      -0.580100
      2 C6          -5.1660    -1.6680     1.5430 c          1 40M       0.609100
      3 C7          -4.0910    -2.7530     1.3810 c3         1 40M      -0.159400
      4 C8          -4.6690    -4.0440     0.7600 c3         1 40M      -0.077100
      5 N           -5.0510    -0.6220     0.6430 ns         1 40M      -0.145000
      6 C4          -5.7890     0.5790     0.4470 ca         1 40M       0.010000
      7 C5          -7.0190     0.8220     1.0990 ca         1 40M      -0.130000
      8 C3          -7.7450     1.9930     0.8360 ca         1 40M      -0.081000
      9 C1          -7.2620     2.9280    -0.0890 ca         1 40M      -0.133000
     10 C           -6.0420     2.7080    -0.7560 ca         1 40M      -0.056300
     11 C25         -5.5480     3.7530    -1.7550 c3         1 40M      -0.049800
     12 C2          -5.2900     1.5380    -0.4800 ca         1 40M       0.222000
     13 N1          -4.0720     1.3290    -1.1620 nu         1 40M      -0.954900
     14 C12         -2.7800     1.0500    -0.7360 ca         1 40M       0.374900
     15 N3          -2.5350     1.0200     0.5880 nb         1 40M      -0.203000
     16 C11         -1.2700     0.7470     0.9550 ca         1 40M       0.171900
     17 C9          -0.2630     0.5110     0.0010 ca         1 40M      -0.199000
     18 C13          1.0570     0.2230     0.3900 ca         1 40M      -0.021000
     19 N2          -1.8900     0.8480    -1.7230 nb         1 40M      -0.256000
     20 C10         -0.6190     0.5730    -1.3650 ca         1 40M       0.085000
     21 C15          0.3740     0.3430    -2.3330 ca         1 40M      -0.115000
     22 C16          1.6960     0.0550    -1.9480 ca         1 40M      -0.045000
     23 C14          2.0580    -0.0090    -0.5820 cp         1 40M      -0.067000
     24 C22          3.4630    -0.3150    -0.1750 cp         1 40M       0.050000
     25 C21          4.2650     0.6700     0.4570 ca         1 40M       0.049000
     26 Cl1          3.6190     2.2940     0.7510 cl         1 40M      -0.169000
     27 C20          4.0230    -1.5970    -0.4110 ca         1 40M       0.049000
     28 Cl           3.0520    -2.8700    -1.1710 cl         1 40M      -0.169000
     29 C18          5.3490    -1.8880    -0.0270 ca         1 40M       0.192100
     30 O1           5.8440    -3.1560    -0.2770 os         1 40M      -0.320100
     31 C23          7.1800    -3.5540     0.0760 c3         1 40M       0.147900
     32 C17          6.1330    -0.8960     0.5990 ca         1 40M      -0.283000
     33 C19          5.5920     0.3840     0.8410 ca         1 40M       0.192100
     34 O2           6.3310     1.3830     1.4500 os         1 40M      -0.320100
     35 C24          7.6910     1.1930     1.8780 c3         1 40M       0.147900
     36 H1          -3.2850    -2.3920     0.7300 hc         1 40M       0.058700
     37 H2          -3.6860    -2.9990     2.3700 hc         1 40M       0.058700
     38 H3          -3.8850    -4.8030     0.6560 hc         1 40M       0.043367
     39 H4          -5.4640    -4.4590     1.3920 hc         1 40M       0.043367
     40 H5          -5.0870    -3.8440    -0.2340 hc         1 40M       0.043367
     41 H6          -4.2740    -0.7130     0.0010 hn         1 40M       0.159000
     42 H7          -7.4390     0.1090     1.8010 ha         1 40M       0.146000
     43 H8          -8.6920     2.1700     1.3420 ha         1 40M       0.116000
     44 H9          -7.8420     3.8260    -0.2880 ha         1 40M       0.115000
     45 H10         -4.5450     4.1100    -1.4910 hc         1 40M       0.045033
     46 H11         -5.5050     3.3400    -2.7700 hc         1 40M       0.045033
     47 H12         -6.2050     4.6300    -1.7880 hc         1 40M       0.045033
     48 H13         -4.0850     1.6490    -2.1300 hn         1 40M       0.508000
     49 H14         -1.0640     0.7170     2.0240 h4         1 40M       0.027100
     50 H15          1.3150     0.1770     1.4460 ha         1 40M       0.124000
     51 H16          0.1200     0.3870    -3.3890 ha         1 40M       0.134000
     52 H17          2.4490    -0.1180    -2.7130 ha         1 40M       0.123000
     53 H18          7.3550    -4.5970    -0.2150 h1         1 40M       0.045367
     54 H19          7.9220    -2.9290    -0.4370 h1         1 40M       0.045367
     55 H20          7.3380    -3.4730     1.1590 h1         1 40M       0.045367
     56 H21          7.1510    -1.1180     0.8950 ha         1 40M       0.127000
     57 H22          8.3360     0.9380     1.0280 h1         1 40M       0.045367
     58 H23          8.0780     2.1140     2.3330 h1         1 40M       0.045367
     59 H24          7.7570     0.3930     2.6260 h1         1 40M       0.045367
@<TRIPOS>BOND
     1     1     2 2   
     2     2     3 1   
     3     2     5 1   
     4     3     4 1   
     5     3    36 1   
     6     3    37 1   
     7     4    38 1   
     8     4    39 1   
     9     4    40 1   
    10     5     6 1   
    11     5    41 1   
    12     6     7 ar  
    13     6    12 ar  
    14     7     8 ar  
    15     7    42 1   
    16     8     9 ar  
    17     8    43 1   
    18     9    10 ar  
    19     9    44 1   
    20    10    11 1   
    21    10    12 ar  
    22    11    45 1   
    23    11    46 1   
    24    11    47 1   
    25    12    13 1   
    26    13    14 1   
    27    13    48 1   
    28    14    15 ar  
    29    14    19 ar  
    30    15    16 ar  
    31    16    17 ar  
    32    16    49 1   
    33    17    18 ar  
    34    17    20 ar  
    35    18    23 ar  
    36    18    50 1   
    37    19    20 ar  
    38    20    21 ar  
    39    21    22 ar  
    40    21    51 1   
    41    22    23 ar  
    42    22    52 1   
    43    23    24 1   
    44    24    25 ar  
    45    24    27 ar  
    46    25    26 1   
    47    25    33 ar  
    48    27    28 1   
    49    27    29 ar  
    50    29    30 1   
    51    29    32 ar  
    52    30    31 1   
    53    31    53 1   
    54    31    54 1   
    55    31    55 1   
    56    32    33 ar  
    57    32    56 1   
    58    33    34 1   
    59    34    35 1   
    60    35    57 1   
    61    35    58 1   
    62    35    59 1   
@<TRIPOS>SUBSTRUCTURE
     1 40M         1 TEMP              0 ****  ****    0 ROOT
