@<TRIPOS>MOLECULE
40N
   31    34     1     0     0
SMALL
abcg2


@<TRIPOS>ATOM
      1 FAB          2.5800     1.6920     1.3940 f          1 40N      -0.174000
      2 CAN          3.3610     1.0160     0.5370 ca         1 40N       0.186000
      3 CAE          4.6900     1.3720     0.4320 ca         1 40N      -0.153000
      4 CAC          5.5040     0.6610    -0.4380 ca         1 40N      -0.067000
      5 CAD          4.9850    -0.3910    -1.1810 ca         1 40N      -0.127000
      6 CAF          3.6480    -0.7300    -1.0550 ca         1 40N      -0.054000
      7 CAR          2.8060    -0.0260    -0.1950 ca         1 40N      -0.128800
      8 CAO          1.3900    -0.4170    -0.0580 cc         1 40N       0.222800
      9 CAG          1.0240    -1.7050     0.1930 cd         1 40N      -0.368200
     10 CAS         -0.3550    -2.0980     0.3040 c          1 40N       0.594900
     11 OAA         -0.7070    -3.2600     0.5230 o          1 40N      -0.570100
     12 CAU         -1.3220    -1.0120     0.1480 ca         1 40N      -0.214600
     13 CAI         -2.7060    -1.2840     0.2510 ca         1 40N      -0.012000
     14 CAQ         -3.5670    -0.2450     0.0940 ca         1 40N       0.005100
     15 OAM         -4.9190    -0.2430     0.1280 os         1 40N      -0.340100
     16 CAJ         -5.3370     1.1080     0.0000 c5         1 40N       0.377600
     17 OAL         -4.1700     1.8780    -0.2770 os         1 40N      -0.342100
     18 CAP         -3.1160     1.0560    -0.1600 ca         1 40N       0.120100
     19 CAH         -1.7930     1.3630    -0.2680 ca         1 40N      -0.179000
     20 CAT         -0.8850     0.2940    -0.1070 ca         1 40N       0.332000
     21 NAK          0.4570     0.5480    -0.2050 na         1 40N      -0.779000
     22 H1           5.0800     2.1880     1.0260 ha         1 40N       0.138000
     23 H2           6.5460     0.9330    -0.5320 ha         1 40N       0.123000
     24 H3           5.6190    -0.9420    -1.8610 ha         1 40N       0.126000
     25 H4           3.2370    -1.5440    -1.6380 ha         1 40N       0.131000
     26 H5           1.7920    -2.4550     0.3280 ha         1 40N       0.211000
     27 H6          -3.0480    -2.2910     0.4460 ha         1 40N       0.159000
     28 H7          -6.0420     1.2030    -0.8260 h2         1 40N       0.067200
     29 H8          -5.7880     1.4510     0.9340 h2         1 40N       0.067200
     30 H9          -1.4490     2.3700    -0.4660 ha         1 40N       0.137000
     31 H10          0.7450     1.4800    -0.4600 hn         1 40N       0.510000
@<TRIPOS>BOND
     1     1     2 1   
     2     2     3 ar  
     3     2     7 ar  
     4     3     4 ar  
     5     3    22 1   
     6     4     5 ar  
     7     4    23 1   
     8     5     6 ar  
     9     5    24 1   
    10     6     7 ar  
    11     6    25 1   
    12     7     8 1   
    13     8     9 2   
    14     8    21 1   
    15     9    10 1   
    16     9    26 1   
    17    10    11 2   
    18    10    12 1   
    19    12    13 ar  
    20    12    20 ar  
    21    13    14 ar  
    22    13    27 1   
    23    14    15 1   
    24    14    18 ar  
    25    15    16 1   
    26    16    17 1   
    27    16    28 1   
    28    16    29 1   
    29    17    18 1   
    30    18    19 ar  
    31    19    20 ar  
    32    19    30 1   
    33    20    21 1   
    34    21    31 1   
@<TRIPOS>SUBSTRUCTURE
     1 40N         1 TEMP              0 ****  ****    0 ROOT
