@<TRIPOS>MOLECULE
40N
   31    34     1     0     0
SMALL
No Charge or Current Charge


@<TRIPOS>ATOM
      1 FAB          2.6400     1.9890     1.1310 f          1 40N      -0.174000
      2 CAN          3.4160     1.1490     0.4080 ca         1 40N       0.186000
      3 CAE          4.7870     1.4340     0.3020 ca         1 40N      -0.153000
      4 CAC          5.6330     0.5810    -0.4250 ca         1 40N      -0.067000
      5 CAD          5.1000    -0.5580    -1.0470 ca         1 40N      -0.127000
      6 CAF          3.7280    -0.8470    -0.9410 ca         1 40N      -0.054000
      7 CAR          2.8650    -0.0000    -0.2080 ca         1 40N      -0.128800
      8 CAO          1.4350    -0.3120    -0.1130 cc         1 40N       0.222800
      9 CAG          1.0340    -1.6180     0.0530 cd         1 40N      -0.368200
     10 CAS         -0.3470    -2.0640     0.1740 c          1 40N       0.594900
     11 OAA         -0.6320    -3.2450     0.3240 o          1 40N      -0.570100
     12 CAU         -1.3700    -1.0080     0.1030 ca         1 40N      -0.214600
     13 CAI         -2.7530    -1.3070     0.1830 ca         1 40N      -0.012000
     14 CAQ         -3.6560    -0.2400     0.1070 ca         1 40N       0.005100
     15 OAM         -5.0090    -0.3330     0.1700 os         1 40N      -0.340100
     16 CAJ         -5.4370     1.0670     0.0090 c5         1 40N       0.377600
     17 OAL         -4.2510     1.9340    -0.0820 os         1 40N      -0.342100
     18 CAP         -3.2260     1.0470    -0.0360 ca         1 40N       0.120100
     19 CAH         -1.8670     1.3650    -0.1150 ca         1 40N      -0.179000
     20 CAT         -0.9280     0.3170    -0.0450 ca         1 40N       0.332000
     21 NAK          0.4220     0.6450    -0.1220 na         1 40N      -0.779000
     22 H1           5.1930     2.3180     0.7870 ha         1 40N       0.138000
     23 H2           6.6950     0.8030    -0.5080 ha         1 40N       0.123000
     24 H3           5.7500    -1.2190    -1.6170 ha         1 40N       0.126000
     25 H4           3.3360    -1.7270    -1.4480 ha         1 40N       0.131000
     26 H5           1.7510    -2.4250     0.1210 ha         1 40N       0.211000
     27 H6          -3.1130    -2.3270     0.2990 ha         1 40N       0.159000
     28 H7          -6.0250     1.1610    -0.9120 h2         1 40N       0.067200
     29 H8          -6.0430     1.3660     0.8730 h2         1 40N       0.067200
     30 H9          -1.5520     2.3970    -0.2260 ha         1 40N       0.137000
     31 H10          0.6810     1.6250    -0.1900 hn         1 40N       0.510000
@<TRIPOS>BOND
     1     1     2 1   
     2     2     3 ar  
     3     2     7 ar  
     4     3     4 ar  
     5     3    22 1   
     6     4     5 ar  
     7     4    23 1   
     8     5     6 ar  
     9     5    24 1   
    10     6     7 ar  
    11     6    25 1   
    12     7     8 1   
    13     8     9 2   
    14     8    21 1   
    15     9    10 1   
    16     9    26 1   
    17    10    11 2   
    18    10    12 1   
    19    12    13 ar  
    20    12    20 ar  
    21    13    14 ar  
    22    13    27 1   
    23    14    15 1   
    24    14    18 ar  
    25    15    16 1   
    26    16    17 1   
    27    16    28 1   
    28    16    29 1   
    29    17    18 1   
    30    18    19 ar  
    31    19    20 ar  
    32    19    30 1   
    33    20    21 1   
    34    21    31 1   
@<TRIPOS>SUBSTRUCTURE
     1 40N         1 TEMP              0 ****  ****    0 ROOT
