@<TRIPOS>MOLECULE
40O
   20    20     1     0     0
SMALL
bcc


@<TRIPOS>ATOM
      1 C4          -0.6760     1.4450     0.1310 c6         1 40O      -0.116400
      2 C5           0.5990     0.7130    -0.2780 c6         1 40O       0.152100
      3 C6           0.5980    -0.7010     0.2820 c6         1 40O       0.152100
      4 C1          -0.6480    -1.4520    -0.1800 c6         1 40O      -0.116400
      5 C2          -1.9290    -0.7270     0.2160 c6         1 40O      -0.071400
      6 C3          -1.9290     0.7010    -0.3170 c6         1 40O      -0.071400
      7 O7           1.7840    -1.3430    -0.1380 oh         1 40O      -0.580800
      8 O8           1.7550     1.3730     0.1940 oh         1 40O      -0.580800
      9 H1          -0.6860     1.5580     1.2200 hc         1 40O       0.046700
     10 H2          -0.6630     2.4550    -0.2900 hc         1 40O       0.046700
     11 H3           0.6190     0.6390    -1.3780 h1         1 40O       0.039700
     12 H4           0.5690    -0.6260     1.3820 h1         1 40O       0.039700
     13 H5          -0.6110    -1.5650    -1.2700 hc         1 40O       0.046700
     14 H6          -0.6380    -2.4610     0.2410 hc         1 40O       0.046700
     15 H7          -2.7960    -1.2740    -0.1580 hc         1 40O       0.042450
     16 H8          -2.0200    -0.7100     1.3070 hc         1 40O       0.042450
     17 H9          -2.8190     1.2350     0.0240 hc         1 40O       0.042450
     18 H10         -1.9780     0.6840    -1.4100 hc         1 40O       0.042450
     19 H11          1.7430    -2.2580     0.1580 ho         1 40O       0.398000
     20 H12          1.7260     2.2810    -0.1250 ho         1 40O       0.398000
@<TRIPOS>BOND
     1     1     2 1   
     2     1     6 1   
     3     1     9 1   
     4     1    10 1   
     5     2     3 1   
     6     2     8 1   
     7     2    11 1   
     8     3     4 1   
     9     3     7 1   
    10     3    12 1   
    11     4     5 1   
    12     4    13 1   
    13     4    14 1   
    14     5     6 1   
    15     5    15 1   
    16     5    16 1   
    17     6    17 1   
    18     6    18 1   
    19     7    19 1   
    20     8    20 1   
@<TRIPOS>SUBSTRUCTURE
     1 40O         1 TEMP              0 ****  ****    0 ROOT
