@<TRIPOS>MOLECULE
40O
   20    20     1     0     0
SMALL
No Charge or Current Charge


@<TRIPOS>ATOM
      1 C4          -0.6790     1.4800     0.1510 c6         1 40O      -0.116400
      2 C5           0.6230     0.7450    -0.2640 c6         1 40O       0.175300
      3 C6           0.6230    -0.7340     0.2660 c6         1 40O       0.175300
      4 C1          -0.6510    -1.4870    -0.2000 c6         1 40O      -0.116400
      5 C2          -1.9410    -0.7380     0.2170 c6         1 40O      -0.071400
      6 C3          -1.9400     0.7130    -0.3180 c6         1 40O      -0.071400
      7 O7           1.7820    -1.4550    -0.1860 oh         1 40O      -0.643000
      8 O8           1.7530     1.4830     0.2340 oh         1 40O      -0.643000
      9 H1          -0.7090     1.5990     1.2430 hc         1 40O       0.046700
     10 H2          -0.6900     2.4940    -0.2740 hc         1 40O       0.046700
     11 H3           0.6600     0.7110    -1.3630 h1         1 40O       0.039700
     12 H4           0.6150    -0.7000     1.3660 h1         1 40O       0.039700
     13 H5          -0.6350    -1.6060    -1.2930 hc         1 40O       0.046700
     14 H6          -0.6650    -2.5010     0.2230 hc         1 40O       0.046700
     15 H7          -2.8220    -1.2740    -0.1600 hc         1 40O       0.042450
     16 H8          -2.0270    -0.7300     1.3130 hc         1 40O       0.042450
     17 H9          -2.8440     1.2360     0.0240 hc         1 40O       0.042450
     18 H10         -1.9820     0.7040    -1.4160 hc         1 40O       0.042450
     19 H11          1.7750    -2.3180     0.2820 ho         1 40O       0.437000
     20 H12          1.7530     2.3450    -0.2340 ho         1 40O       0.437000
@<TRIPOS>BOND
     1     1     2 1   
     2     1     6 1   
     3     1     9 1   
     4     1    10 1   
     5     2     3 1   
     6     2     8 1   
     7     2    11 1   
     8     3     4 1   
     9     3     7 1   
    10     3    12 1   
    11     4     5 1   
    12     4    13 1   
    13     4    14 1   
    14     5     6 1   
    15     5    15 1   
    16     5    16 1   
    17     6    17 1   
    18     6    18 1   
    19     7    19 1   
    20     8    20 1   
@<TRIPOS>SUBSTRUCTURE
     1 40O         1 TEMP              0 ****  ****    0 ROOT
