@<TRIPOS>MOLECULE
40P
  111   118     1     0     0
SMALL
No Charge or Current Charge


@<TRIPOS>ATOM
      1 C13          1.8320    -3.1820    51.2280 c2         1 40P      -0.293200
      2 C18         -3.0730     0.3630    52.3570 c3         1 40P      -0.063400
      3 C15         -0.2560    -1.8480    51.8830 c5         1 40P       0.152300
      4 C17         -1.7410    -0.0440    51.6850 c5         1 40P       0.382000
      5 O1           4.6350    -3.4550    51.6420 o          1 40P      -0.723500
      6 O3           4.5610    -5.5460    51.1830 o          1 40P      -0.723500
      7 C8           2.5170    -4.3500    51.0760 ce         1 40P      -0.135400
      8 C9           1.7860    -5.6390    50.6670 c6         1 40P      -0.038200
      9 C10          0.3300    -5.4020    50.2000 c6         1 40P      -0.071400
     10 C27         -0.4630    -4.3830    51.0830 c6         1 40P      -0.113300
     11 C28         -0.4230    -4.8630    52.6040 c3         1 40P      -0.068400
     12 C46         -1.6530    -4.5100    53.4910 c3         1 40P      -0.070700
     13 C22         -1.2430    -4.3450    54.9770 c3         1 40P      -0.086100
     14 C29         -2.8040    -5.5470    53.3200 c3         1 40P      -0.066700
     15 C6          -4.1760    -4.9760    53.7580 c3         1 40P      -0.085100
     16 C30         -2.8720    -6.1590    51.8980 c3         1 40P       0.121800
     17 N31         -2.9050    -5.1390    50.8490 n2         1 40P      -0.635900
     18 C32         -1.9320    -4.3530    50.4960 c2         1 40P       0.464300
     19 C33         -2.1790    -3.5040    49.2310 c3         1 40P      -0.120700
     20 C34         -3.6630    -3.2780    48.8170 c3         1 40P      -0.052400
     21 C35         -4.4540    -2.3870    49.8080 c3         1 40P      -0.048200
     22 C36         -5.9430    -2.1970    49.5090 c2         1 40P      -0.097400
     23 C38         -6.5910    -2.7070    48.4460 c2         1 40P      -0.339000
     24 C37         -6.6550    -1.3320    50.5450 c3         1 40P      -0.041200
     25 C48         -6.7830    -1.9730    51.9550 c6         1 40P       0.173300
     26 C49         -7.5980    -3.2920    51.9700 c6         1 40P      -0.101400
     27 C50         -7.8170    -3.7980    53.4150 c6         1 40P      -0.068400
     28 C51         -8.4340    -2.6960    54.3180 c6         1 40P       0.176000
     29 O52         -8.4830    -3.1910    55.6690 oh         1 40P      -0.710000
     30 C53         -9.9110    -2.4140    53.9030 c3         1 40P      -0.117100
     31 O47         -7.3320    -0.9780    52.8510 os         1 40P      -0.482000
     32 C43         -7.5370    -1.3880    54.2310 c5         1 40P       0.370000
     33 O44         -6.2430    -1.5960    54.8400 os         1 40P      -0.477000
     34 C42         -8.0660    -0.1550    55.0120 c5         1 40P      -0.086400
     35 C55         -6.7820     0.6980    55.2310 c5         1 40P      -0.089400
     36 C23         -5.6030    -0.3210    55.0710 c5         1 40P       0.395000
     37 O48         -4.9050     0.0790    53.8620 os         1 40P      -0.491000
     38 C80         -4.6530    -0.4000    56.2970 c6         1 40P      -0.085400
     39 C60         -3.3730    -1.1930    55.9770 c6         1 40P      -0.073400
     40 C81         -2.6660    -0.5460    54.7730 c6         1 40P      -0.101400
     41 C21         -3.6080    -0.4840    53.5440 c6         1 40P       0.190300
     42 O16         -1.6300    -1.4820    51.5650 os         1 40P      -0.488000
     43 O65         -0.6210     0.3140    52.5070 os         1 40P      -0.458000
     44 C61          0.4690    -0.4660    51.9700 c5         1 40P       0.101300
     45 C62          0.9370     0.1910    50.6250 c6         1 40P       0.154300
     46 O66          1.4540     1.5020    50.9090 oh         1 40P      -0.725000
     47 C63         -0.2390     0.2650    49.6010 c6         1 40P      -0.050700
     48 C67          0.0600     1.1460    48.3550 c3         1 40P      -0.076100
     49 C64         -1.5620     0.6660    50.3050 c6         1 40P      -0.102400
     50 C12          0.3240    -2.9980    50.9730 c6         1 40P      -0.004500
     51 H1           2.3830    -2.2910    51.5250 ha         1 40P       0.188000
     52 H3          -3.8510     0.3750    51.5870 hc         1 40P       0.062700
     53 H4          -0.2590    -2.2330    52.9100 h1         1 40P       0.062700
     54 H6           1.7960    -6.3360    51.5160 hc         1 40P       0.058700
     55 H7           2.3360    -6.1420    49.8600 hc         1 40P       0.058700
     56 H8           0.3540    -5.0430    49.1620 hc         1 40P       0.030700
     57 H9          -0.1950    -6.3670    50.1660 hc         1 40P       0.030700
     58 H10         -0.2650    -5.9460    52.6680 hc         1 40P       0.054700
     59 H11          0.4730    -4.4590    53.0890 hc         1 40P       0.054700
     60 H12         -2.0420    -3.5390    53.1670 hc         1 40P       0.064700
     61 H13         -2.0990    -4.0790    55.6040 hc         1 40P       0.029700
     62 H14         -0.8110    -5.2750    55.3670 hc         1 40P       0.029700
     63 H15         -0.4960    -3.5500    55.0850 hc         1 40P       0.029700
     64 H16         -2.5910    -6.3900    53.9890 hc         1 40P       0.038700
     65 H17         -4.1680    -4.6720    54.8100 hc         1 40P       0.033367
     66 H18         -4.4450    -4.1030    53.1520 hc         1 40P       0.033367
     67 H19         -4.9620    -5.7310    53.6380 hc         1 40P       0.033367
     68 H20         -3.7650    -6.7930    51.8280 h1         1 40P       0.040700
     69 H21         -2.0200    -6.8340    51.7450 h1         1 40P       0.040700
     70 H22         -1.6660    -3.9800    48.3880 hc         1 40P       0.056200
     71 H23         -1.7450    -2.5110    49.3160 hc         1 40P       0.056200
     72 H24         -3.6770    -2.7970    47.8310 hc         1 40P       0.038200
     73 H25         -4.1640    -4.2460    48.6970 hc         1 40P       0.038200
     74 H26         -4.3330    -2.8140    50.8090 hc         1 40P       0.058200
     75 H27         -3.9680    -1.4060    49.8420 hc         1 40P       0.058200
     76 H28         -7.6550    -2.5290    48.2900 ha         1 40P       0.158000
     77 H29         -6.0970    -3.3180    47.6920 ha         1 40P       0.158000
     78 H30         -6.1300    -0.3740    50.6340 hc         1 40P       0.052700
     79 H31         -7.6600    -1.0780    50.1880 hc         1 40P       0.052700
     80 H32         -5.7710    -2.2010    52.3160 h1         1 40P       0.064700
     81 H33         -8.5610    -3.1440    51.4650 hc         1 40P       0.053700
     82 H34         -7.0660    -4.0600    51.3920 hc         1 40P       0.053700
     83 H35         -8.4560    -4.6910    53.4070 hc         1 40P       0.062200
     84 H36         -6.8550    -4.1160    53.8360 hc         1 40P       0.062200
     85 H37         -7.5760    -3.0540    56.0260 ho         1 40P       0.492000
     86 H38        -10.4060    -1.7430    54.6160 hc         1 40P       0.043367
     87 H39         -9.9740    -1.9390    52.9180 hc         1 40P       0.043367
     88 H40        -10.4990    -3.3380    53.8660 hc         1 40P       0.043367
     89 H41         -8.8400     0.3910    54.4610 hc         1 40P       0.054700
     90 H42         -8.5040    -0.4530    55.9710 hc         1 40P       0.054700
     91 H43         -6.7170     1.5050    54.4930 hc         1 40P       0.063700
     92 H44         -6.7870     1.1780    56.2150 hc         1 40P       0.063700
     93 H45         -4.3860     0.6170    56.6170 hc         1 40P       0.049700
     94 H46         -5.1800    -0.8610    57.1420 hc         1 40P       0.049700
     95 H47         -3.6280    -2.2370    55.7500 hc         1 40P       0.049200
     96 H48         -2.7050    -1.2080    56.8490 hc         1 40P       0.049200
     97 H49         -1.7660    -1.1230    54.5260 hc         1 40P       0.059200
     98 H50         -2.3280     0.4660    55.0360 hc         1 40P       0.059200
     99 H51         -3.7700    -1.5130    53.1880 h1         1 40P       0.058700
    100 H52          1.3040    -0.4860    52.6840 h1         1 40P       0.096700
    101 H53          1.7330    -0.4270    50.1830 h1         1 40P       0.067700
    102 H54          0.8240     1.8890    51.5600 ho         1 40P       0.504000
    103 H55         -0.3820    -0.7360    49.1840 hc         1 40P       0.055700
    104 H56          0.9890     0.8320    47.8640 hc         1 40P       0.034700
    105 H57         -0.7470     1.0670    47.6160 hc         1 40P       0.034700
    106 H58          0.1620     2.2050    48.6190 hc         1 40P       0.034700
    107 H59         -1.5830     1.7530    50.4630 hc         1 40P       0.053700
    108 H60         -2.4120     0.4370    49.6490 hc         1 40P       0.053700
    109 H61          0.2880    -2.6670    49.9310 hc         1 40P       0.047700
    110 C2           4.0160    -4.4590    51.3170 c          1 40P       0.698200
    111 H2          -2.9830     1.4050    52.6850 hc         1 40P       0.062700
@<TRIPOS>BOND
     1     1     7 2   
     2     1    50 1   
     3     1    51 1   
     4     2     4 1   
     5     2    41 1   
     6     2    52 1   
     7     2   111 1   
     8     3    42 1   
     9     3    44 1   
    10     3    50 1   
    11     3    53 1   
    12     4    42 1   
    13     4    43 1   
    14     4    49 1   
    15     5   110 1   
    16     6   110 1   
    17     7     8 1   
    18     7   110 1   
    19     8     9 1   
    20     8    54 1   
    21     8    55 1   
    22     9    10 1   
    23     9    56 1   
    24     9    57 1   
    25    10    11 1   
    26    10    18 1   
    27    10    50 1   
    28    11    12 1   
    29    11    58 1   
    30    11    59 1   
    31    12    13 1   
    32    12    14 1   
    33    12    60 1   
    34    13    61 1   
    35    13    62 1   
    36    13    63 1   
    37    14    15 1   
    38    14    16 1   
    39    14    64 1   
    40    15    65 1   
    41    15    66 1   
    42    15    67 1   
    43    16    17 1   
    44    16    68 1   
    45    16    69 1   
    46    17    18 2   
    47    18    19 1   
    48    19    20 1   
    49    19    70 1   
    50    19    71 1   
    51    20    21 1   
    52    20    72 1   
    53    20    73 1   
    54    21    22 1   
    55    21    74 1   
    56    21    75 1   
    57    22    23 2   
    58    22    24 1   
    59    23    76 1   
    60    23    77 1   
    61    24    25 1   
    62    24    78 1   
    63    24    79 1   
    64    25    26 1   
    65    25    31 1   
    66    25    80 1   
    67    26    27 1   
    68    26    81 1   
    69    26    82 1   
    70    27    28 1   
    71    27    83 1   
    72    27    84 1   
    73    28    29 1   
    74    28    30 1   
    75    28    32 1   
    76    29    85 1   
    77    30    86 1   
    78    30    87 1   
    79    30    88 1   
    80    31    32 1   
    81    32    33 1   
    82    32    34 1   
    83    33    36 1   
    84    34    35 1   
    85    34    89 1   
    86    34    90 1   
    87    35    36 1   
    88    35    91 1   
    89    35    92 1   
    90    36    37 1   
    91    36    38 1   
    92    37    41 1   
    93    38    39 1   
    94    38    93 1   
    95    38    94 1   
    96    39    40 1   
    97    39    95 1   
    98    39    96 1   
    99    40    41 1   
   100    40    97 1   
   101    40    98 1   
   102    41    99 1   
   103    43    44 1   
   104    44    45 1   
   105    44   100 1   
   106    45    46 1   
   107    45    47 1   
   108    45   101 1   
   109    46   102 1   
   110    47    48 1   
   111    47    49 1   
   112    47   103 1   
   113    48   104 1   
   114    48   105 1   
   115    48   106 1   
   116    49   107 1   
   117    49   108 1   
   118    50   109 1   
@<TRIPOS>SUBSTRUCTURE
     1 40P         1 TEMP              0 ****  ****    0 ROOT
