@<TRIPOS>MOLECULE
40P
  111   118     1     0     0
SMALL
abcg2


@<TRIPOS>ATOM
      1 C13          1.7090    -3.1410    51.2180 c2         1 40P      -0.293200
      2 C18         -3.0360     0.3890    52.4010 c3         1 40P      -0.063400
      3 C15         -0.2940    -1.8600    51.9250 c5         1 40P       0.152300
      4 C17         -1.7480    -0.0480    51.7280 c5         1 40P       0.382000
      5 O1           4.4750    -3.2640    51.6500 o          1 40P      -0.723500
      6 O3           4.4100    -5.4820    51.3390 o          1 40P      -0.723500
      7 C8           2.3810    -4.2850    51.0930 ce         1 40P      -0.135400
      8 C9           1.6870    -5.5560    50.7100 c6         1 40P      -0.038200
      9 C10          0.2610    -5.3230    50.2200 c6         1 40P      -0.071400
     10 C27         -0.5330    -4.3170    51.0990 c6         1 40P      -0.113300
     11 C28         -0.5000    -4.7680    52.5890 c3         1 40P      -0.068400
     12 C46         -1.7410    -4.4560    53.4320 c3         1 40P      -0.070700
     13 C22         -1.3610    -4.3290    54.9080 c3         1 40P      -0.086100
     14 C29         -2.8290    -5.5290    53.2330 c3         1 40P      -0.066700
     15 C6          -4.2140    -4.9900    53.5810 c3         1 40P      -0.085100
     16 C30         -2.7930    -6.1010    51.8120 c3         1 40P       0.121800
     17 N31         -2.9050    -5.0830    50.7780 n2         1 40P      -0.635900
     18 C32         -1.9530    -4.2930    50.4800 c2         1 40P       0.464300
     19 C33         -2.1930    -3.3730    49.2930 c3         1 40P      -0.120700
     20 C34         -3.6470    -3.2340    48.8460 c3         1 40P      -0.052400
     21 C35         -4.4810    -2.4510    49.8550 c3         1 40P      -0.048200
     22 C36         -5.9410    -2.2590    49.5440 c2         1 40P      -0.097400
     23 C38         -6.5510    -2.7820    48.4800 c2         1 40P      -0.339000
     24 C37         -6.7030    -1.4080    50.5320 c3         1 40P      -0.041200
     25 C48         -6.7450    -1.9890    51.9420 c6         1 40P       0.173300
     26 C49         -7.4410    -3.3370    52.0360 c6         1 40P      -0.101400
     27 C50         -7.6040    -3.7590    53.4950 c6         1 40P      -0.068400
     28 C51         -8.2420    -2.6640    54.3490 c6         1 40P       0.176000
     29 O52         -8.1350    -3.1150    55.7060 oh         1 40P      -0.710000
     30 C53         -9.7120    -2.4540    53.9940 c3         1 40P      -0.117100
     31 O47         -7.4270    -1.0200    52.7610 os         1 40P      -0.482000
     32 C43         -7.4450    -1.3450    54.1460 c5         1 40P       0.370000
     33 O44         -6.1270    -1.5250    54.6370 os         1 40P      -0.477000
     34 C42         -7.9770    -0.1290    54.8980 c5         1 40P      -0.086400
     35 C55         -6.7250     0.6980    55.2020 c5         1 40P      -0.089400
     36 C23         -5.5430    -0.2650    54.9970 c5         1 40P       0.395000
     37 O48         -4.7790     0.2610    53.9260 os         1 40P      -0.491000
     38 C80         -4.6710    -0.4860    56.2270 c6         1 40P      -0.085400
     39 C60         -3.4140    -1.2860    55.8970 c6         1 40P      -0.073400
     40 C81         -2.6570    -0.6210    54.7480 c6         1 40P      -0.101400
     41 C21         -3.5770    -0.4480    53.5520 c6         1 40P       0.190300
     42 O16         -1.6530    -1.4780    51.6260 os         1 40P      -0.488000
     43 O65         -0.6150     0.3210    52.5080 os         1 40P      -0.458000
     44 C61          0.4260    -0.4990    51.9610 c5         1 40P       0.101300
     45 C62          0.8710     0.0890    50.6160 c6         1 40P       0.154300
     46 O66          1.4110     1.3980    50.8280 oh         1 40P      -0.725000
     47 C63         -0.3090     0.1800    49.6400 c6         1 40P      -0.050700
     48 C67         -0.0100     1.0470    48.4210 c3         1 40P      -0.076100
     49 C64         -1.6030     0.5990    50.3460 c6         1 40P      -0.102400
     50 C12          0.2270    -2.9520    50.9830 c6         1 40P      -0.004500
     51 H1           2.2820    -2.2690    51.5080 ha         1 40P       0.188000
     52 H3          -3.8160     0.4260    51.6380 hc         1 40P       0.062700
     53 H4          -0.2730    -2.2400    52.9480 h1         1 40P       0.062700
     54 H6           1.6940    -6.2390    51.5660 hc         1 40P       0.058700
     55 H7           2.2610    -6.0670    49.9340 hc         1 40P       0.058700
     56 H8           0.2890    -4.9380    49.1980 hc         1 40P       0.030700
     57 H9          -0.2760    -6.2730    50.1850 hc         1 40P       0.030700
     58 H10         -0.3030    -5.8390    52.6500 hc         1 40P       0.054700
     59 H11          0.3670    -4.2970    53.0510 hc         1 40P       0.054700
     60 H12         -2.1590    -3.5010    53.1050 hc         1 40P       0.064700
     61 H13         -2.2380    -4.1910    55.5410 hc         1 40P       0.029700
     62 H14         -0.8410    -5.2310    55.2460 hc         1 40P       0.029700
     63 H15         -0.6960    -3.4770    55.0680 hc         1 40P       0.029700
     64 H16         -2.6020    -6.3680    53.9040 hc         1 40P       0.038700
     65 H17         -4.2410    -4.5810    54.5920 hc         1 40P       0.033367
     66 H18         -4.4920    -4.1910    52.8930 hc         1 40P       0.033367
     67 H19         -4.9730    -5.7730    53.5140 hc         1 40P       0.033367
     68 H20         -3.6390    -6.7830    51.6900 h1         1 40P       0.040700
     69 H21         -1.8900    -6.7010    51.6770 h1         1 40P       0.040700
     70 H22         -1.5880    -3.7550    48.4630 hc         1 40P       0.056200
     71 H23         -1.8100    -2.3830    49.5150 hc         1 40P       0.056200
     72 H24         -3.6610    -2.7180    47.8820 hc         1 40P       0.038200
     73 H25         -4.0830    -4.2210    48.6870 hc         1 40P       0.038200
     74 H26         -4.3970    -2.9420    50.8270 hc         1 40P       0.058200
     75 H27         -4.0350    -1.4610    50.0030 hc         1 40P       0.058200
     76 H28         -7.6070    -2.6150    48.3060 ha         1 40P       0.158000
     77 H29         -6.0240    -3.3870    47.7540 ha         1 40P       0.158000
     78 H30         -6.2290    -0.4230    50.6000 hc         1 40P       0.052700
     79 H31         -7.7290    -1.2600    50.1840 hc         1 40P       0.052700
     80 H32         -5.7280    -2.0870    52.3250 h1         1 40P       0.064700
     81 H33         -8.4130    -3.2770    51.5390 hc         1 40P       0.053700
     82 H34         -6.8530    -4.0840    51.4990 hc         1 40P       0.053700
     83 H35         -8.2130    -4.6630    53.5720 hc         1 40P       0.062200
     84 H36         -6.6290    -3.9850    53.9240 hc         1 40P       0.062200
     85 H37         -8.7240    -2.5860    56.2590 ho         1 40P       0.492000
     86 H38        -10.1830    -1.7520    54.6850 hc         1 40P       0.043367
     87 H39         -9.8290    -2.0630    52.9850 hc         1 40P       0.043367
     88 H40        -10.2370    -3.4080    54.0630 hc         1 40P       0.043367
     89 H41         -8.7150     0.4070    54.3060 hc         1 40P       0.054700
     90 H42         -8.4550    -0.4510    55.8230 hc         1 40P       0.054700
     91 H43         -6.6150     1.5360    54.5160 hc         1 40P       0.063700
     92 H44         -6.7320     1.0920    56.2170 hc         1 40P       0.063700
     93 H45         -4.3870     0.4980    56.6110 hc         1 40P       0.049700
     94 H46         -5.2730    -0.9780    56.9940 hc         1 40P       0.049700
     95 H47         -3.6880    -2.3050    55.6110 hc         1 40P       0.049200
     96 H48         -2.7770    -1.3650    56.7790 hc         1 40P       0.049200
     97 H49         -1.7940    -1.2170    54.4540 hc         1 40P       0.059200
     98 H50         -2.2850     0.3600    55.0620 hc         1 40P       0.059200
     99 H51         -3.8600    -1.4380    53.1790 h1         1 40P       0.058700
    100 H52          1.2550    -0.4950    52.6680 h1         1 40P       0.096700
    101 H53          1.6420    -0.5490    50.1760 h1         1 40P       0.067700
    102 H54          2.1790     1.3170    51.4080 ho         1 40P       0.504000
    103 H55         -0.4620    -0.8360    49.2770 hc         1 40P       0.055700
    104 H56          0.8970     0.7100    47.9150 hc         1 40P       0.034700
    105 H57         -0.8370     0.9910    47.7100 hc         1 40P       0.034700
    106 H58          0.1260     2.0920    48.7020 hc         1 40P       0.034700
    107 H59         -1.6310     1.6830    50.4900 hc         1 40P       0.053700
    108 H60         -2.4610     0.3310    49.7270 hc         1 40P       0.053700
    109 H61          0.1180    -2.5960    49.9580 hc         1 40P       0.047700
    110 C2           3.8780    -4.3400    51.3830 c          1 40P       0.698200
    111 H2          -2.8860     1.4130    52.7490 hc         1 40P       0.062700
@<TRIPOS>BOND
     1     1     7 2   
     2     1    50 1   
     3     1    51 1   
     4     2     4 1   
     5     2    41 1   
     6     2    52 1   
     7     2   111 1   
     8     3    42 1   
     9     3    44 1   
    10     3    50 1   
    11     3    53 1   
    12     4    42 1   
    13     4    43 1   
    14     4    49 1   
    15     5   110 1   
    16     6   110 1   
    17     7     8 1   
    18     7   110 1   
    19     8     9 1   
    20     8    54 1   
    21     8    55 1   
    22     9    10 1   
    23     9    56 1   
    24     9    57 1   
    25    10    11 1   
    26    10    18 1   
    27    10    50 1   
    28    11    12 1   
    29    11    58 1   
    30    11    59 1   
    31    12    13 1   
    32    12    14 1   
    33    12    60 1   
    34    13    61 1   
    35    13    62 1   
    36    13    63 1   
    37    14    15 1   
    38    14    16 1   
    39    14    64 1   
    40    15    65 1   
    41    15    66 1   
    42    15    67 1   
    43    16    17 1   
    44    16    68 1   
    45    16    69 1   
    46    17    18 2   
    47    18    19 1   
    48    19    20 1   
    49    19    70 1   
    50    19    71 1   
    51    20    21 1   
    52    20    72 1   
    53    20    73 1   
    54    21    22 1   
    55    21    74 1   
    56    21    75 1   
    57    22    23 2   
    58    22    24 1   
    59    23    76 1   
    60    23    77 1   
    61    24    25 1   
    62    24    78 1   
    63    24    79 1   
    64    25    26 1   
    65    25    31 1   
    66    25    80 1   
    67    26    27 1   
    68    26    81 1   
    69    26    82 1   
    70    27    28 1   
    71    27    83 1   
    72    27    84 1   
    73    28    29 1   
    74    28    30 1   
    75    28    32 1   
    76    29    85 1   
    77    30    86 1   
    78    30    87 1   
    79    30    88 1   
    80    31    32 1   
    81    32    33 1   
    82    32    34 1   
    83    33    36 1   
    84    34    35 1   
    85    34    89 1   
    86    34    90 1   
    87    35    36 1   
    88    35    91 1   
    89    35    92 1   
    90    36    37 1   
    91    36    38 1   
    92    37    41 1   
    93    38    39 1   
    94    38    93 1   
    95    38    94 1   
    96    39    40 1   
    97    39    95 1   
    98    39    96 1   
    99    40    41 1   
   100    40    97 1   
   101    40    98 1   
   102    41    99 1   
   103    43    44 1   
   104    44    45 1   
   105    44   100 1   
   106    45    46 1   
   107    45    47 1   
   108    45   101 1   
   109    46   102 1   
   110    47    48 1   
   111    47    49 1   
   112    47   103 1   
   113    48   104 1   
   114    48   105 1   
   115    48   106 1   
   116    49   107 1   
   117    49   108 1   
   118    50   109 1   
@<TRIPOS>SUBSTRUCTURE
     1 40P         1 TEMP              0 ****  ****    0 ROOT
