@<TRIPOS>MOLECULE
40Q
   38    40     1     0     0
SMALL
No Charge or Current Charge


@<TRIPOS>ATOM
      1 N7           4.5240    -0.5250     1.3560 nc         1 40Q      -0.751300
      2 C23          4.8800    -1.5570     0.6460 cd         1 40Q       0.725800
      3 N6           5.7860    -2.3340     1.2140 nv         1 40Q      -1.038200
      4 N5           4.4360    -1.9130    -0.5660 ns         1 40Q      -0.432400
      5 C22          3.5120    -1.2020    -1.2480 c          1 40Q       0.581200
      6 O5           3.1180    -1.5380    -2.3560 o          1 40Q      -0.581000
      7 C21          3.0520     0.0010    -0.5040 cd         1 40Q      -0.213200
      8 N8           2.0880     0.8600    -1.0610 nu         1 40Q      -0.749200
      9 C18          1.4770     1.9450    -0.2220 c6         1 40Q       0.162500
     10 C19          2.4640     2.4300     0.9120 c6         1 40Q       0.238800
     11 N4           3.2350     1.3130     1.5150 nu         1 40Q      -0.817200
     12 C20          3.5860     0.2510     0.7530 cc         1 40Q       0.440600
     13 C17          0.1040     1.4910     0.3890 c3         1 40Q       0.179800
     14 N3          -0.9430     1.2180    -0.6270 nu         1 40Q      -0.949200
     15 C13         -4.9410    -0.0250    -0.0010 ca         1 40Q      -0.161600
     16 C26         -4.4570     0.2670    -1.2980 ca         1 40Q      -0.057500
     17 C25         -3.1260     0.6790    -1.4890 ca         1 40Q      -0.201500
     18 C16         -2.2560     0.8070    -0.3980 ca         1 40Q       0.258000
     19 C15         -2.7250     0.5180     0.8950 ca         1 40Q      -0.201500
     20 C14         -4.0550     0.1060     1.0930 ca         1 40Q      -0.057500
     21 O4          -6.7550    -0.7120     1.3490 o          1 40Q      -0.728500
     22 H1           5.9360    -2.1200     2.1920 hn         1 40Q       0.489000
     23 H2           5.7650    -3.3190     0.9840 hn         1 40Q       0.489000
     24 H4           1.5900     0.5280    -1.8940 hn         1 40Q       0.466000
     25 H6           1.2620     2.8210    -0.8520 h1         1 40Q       0.073700
     26 H7           3.1700     3.1450     0.4640 h1         1 40Q       0.045700
     27 H8           1.9060     2.9810     1.6830 h1         1 40Q       0.045700
     28 H9           3.8710     1.4850     2.2890 hn         1 40Q       0.496000
     29 H10          0.2760     0.5920     0.9980 h1         1 40Q       0.034200
     30 H11         -0.2500     2.2830     1.0630 h1         1 40Q       0.034200
     31 H12         -0.7050     1.4080    -1.6000 hn         1 40Q       0.450000
     32 H13         -5.1110     0.1770    -2.1630 ha         1 40Q       0.122500
     33 H14         -2.7760     0.8990    -2.4940 ha         1 40Q       0.087000
     34 H15         -2.0680     0.6100     1.7540 ha         1 40Q       0.087000
     35 H16         -4.3930    -0.1110     2.1050 ha         1 40Q       0.122500
     36 OXT         -7.1100    -0.5710    -0.7640 o          1 40Q      -0.728500
     37 H17          4.8060    -2.7290    -1.0220 hn         1 40Q       0.324500
     38 C12         -6.3780    -0.4700     0.2110 c          1 40Q       0.713600
@<TRIPOS>BOND
     1     1     2 2   
     2     1    12 1   
     3     2     3 1   
     4     2     4 1   
     5     3    22 1   
     6     3    23 1   
     7     4     5 1   
     8     4    37 1   
     9     5     6 2   
    10     5     7 1   
    11     7     8 1   
    12     7    12 2   
    13     8     9 1   
    14     8    24 1   
    15     9    10 1   
    16     9    13 1   
    17     9    25 1   
    18    10    11 1   
    19    10    26 1   
    20    10    27 1   
    21    11    12 1   
    22    11    28 1   
    23    13    14 1   
    24    13    29 1   
    25    13    30 1   
    26    14    18 1   
    27    14    31 1   
    28    15    16 ar  
    29    15    20 ar  
    30    15    38 1   
    31    16    17 ar  
    32    16    32 1   
    33    17    18 ar  
    34    17    33 1   
    35    18    19 ar  
    36    19    20 ar  
    37    19    34 1   
    38    20    35 1   
    39    21    38 1   
    40    36    38 1   
@<TRIPOS>SUBSTRUCTURE
     1 40Q         1 TEMP              0 ****  ****    0 ROOT
