@<TRIPOS>MOLECULE
40Q
   38    40     1     0     0
SMALL
bcc


@<TRIPOS>ATOM
      1 N7           3.6960    -0.6870     1.2550 nc         1 40Q      -0.751300
      2 C23          3.6590    -1.7770     0.5400 cd         1 40Q       0.725800
      3 N6           4.1620    -2.9260     1.0360 nv         1 40Q      -0.927800
      4 N5           3.1630    -1.8040    -0.7190 ns         1 40Q      -0.499400
      5 C22          2.6530    -0.6790    -1.3700 c          1 40Q       0.723700
      6 O5           2.1510    -0.7890    -2.4930 o          1 40Q      -0.656500
      7 C21          2.7830     0.5120    -0.6300 cd         1 40Q      -0.213200
      8 N8           2.3480     1.7530    -1.1310 nu         1 40Q      -0.694000
      9 C18          1.6370     2.5340    -0.1380 c6         1 40Q       0.162500
     10 C19          2.6270     2.8010     0.9960 c6         1 40Q       0.238800
     11 N4           3.2370     1.5610     1.4340 nu         1 40Q      -0.762000
     12 C20          3.2470     0.4490     0.6720 cc         1 40Q       0.440600
     13 C17          0.3610     1.8820     0.4180 c3         1 40Q       0.179800
     14 N3          -0.4690     1.3690    -0.6450 nu         1 40Q      -0.755600
     15 C13         -4.1570    -0.5340     0.0760 ca         1 40Q      -0.161600
     16 C26         -3.4820    -0.6680    -1.1380 ca         1 40Q      -0.075500
     17 C25         -2.2680    -0.0490    -1.3660 ca         1 40Q      -0.219500
     18 C16         -1.6650     0.7420    -0.3750 ca         1 40Q       0.119600
     19 C15         -2.3320     0.8750     0.8480 ca         1 40Q      -0.219500
     20 C14         -3.5540     0.2500     1.0550 ca         1 40Q      -0.075500
     21 O4          -6.0260    -1.0320     1.4290 o          1 40Q      -0.833800
     22 H1           4.3290    -2.9510     2.0290 hn         1 40Q       0.433800
     23 H2           3.8980    -3.8050     0.6240 hn         1 40Q       0.433800
     24 H4           1.8990     1.6940    -2.0330 hn         1 40Q       0.410800
     25 H6           1.3700     3.4900    -0.5920 h1         1 40Q       0.073700
     26 H7           3.3850     3.5080     0.6480 h1         1 40Q       0.045700
     27 H8           2.1200     3.2620     1.8450 h1         1 40Q       0.045700
     28 H9           3.4980     1.4620     2.4010 hn         1 40Q       0.440800
     29 H10          0.6080     1.0990     1.1500 h1         1 40Q       0.034200
     30 H11         -0.1830     2.6550     0.9660 h1         1 40Q       0.034200
     31 H12          0.0510     0.9210    -1.3860 hn         1 40Q       0.394800
     32 H13         -3.9160    -1.2750    -1.9230 ha         1 40Q       0.140500
     33 H14         -1.7730    -0.1720    -2.3230 ha         1 40Q       0.105000
     34 H15         -1.9040     1.4670     1.6470 ha         1 40Q       0.105000
     35 H16         -4.0440     0.3720     2.0120 ha         1 40Q       0.140500
     36 OXT         -5.9380    -1.9200    -0.6110 o          1 40Q      -0.833800
     37 H17          3.1120    -2.6800    -1.2210 hn         1 40Q       0.324500
     38 C12         -5.4860    -1.2200     0.3190 c          1 40Q       0.924200
@<TRIPOS>BOND
     1     1     2 2   
     2     1    12 1   
     3     2     3 1   
     4     2     4 1   
     5     3    22 1   
     6     3    23 1   
     7     4     5 1   
     8     4    37 1   
     9     5     6 2   
    10     5     7 1   
    11     7     8 1   
    12     7    12 2   
    13     8     9 1   
    14     8    24 1   
    15     9    10 1   
    16     9    13 1   
    17     9    25 1   
    18    10    11 1   
    19    10    26 1   
    20    10    27 1   
    21    11    12 1   
    22    11    28 1   
    23    13    14 1   
    24    13    29 1   
    25    13    30 1   
    26    14    18 1   
    27    14    31 1   
    28    15    16 ar  
    29    15    20 ar  
    30    15    38 1   
    31    16    17 ar  
    32    16    32 1   
    33    17    18 ar  
    34    17    33 1   
    35    18    19 ar  
    36    19    20 ar  
    37    19    34 1   
    38    20    35 1   
    39    21    38 1   
    40    36    38 1   
@<TRIPOS>SUBSTRUCTURE
     1 40Q         1 TEMP              0 ****  ****    0 ROOT
