@<TRIPOS>MOLECULE
40R
   20    20     1     0     0
SMALL
No Charge or Current Charge


@<TRIPOS>ATOM
      1 N1           0.9390     0.2400     0.2950 na         1 40R      -0.060700
      2 C2          -2.9500     0.2660     0.2670 c3         1 40R      -0.074400
      3 N3           1.6150    -0.7630     0.9150 nc         1 40R      -0.542800
      4 C4          -0.4330     0.6060     0.6890 c3         1 40R       0.088600
      5 C5           1.7030     0.8130    -0.6930 cc         1 40R       0.406400
      6 C6           2.7780    -0.7640     0.2740 cd         1 40R       0.515900
      7 C1          -4.0290    -0.4590    -0.5610 c3         1 40R      -0.089100
      8 C3          -1.5120    -0.1210    -0.1430 c3         1 40R      -0.097400
      9 N2           2.8700     0.1940    -0.7250 nd         1 40R      -0.699000
     10 H1          -3.0820     1.3490     0.1550 hc         1 40R       0.038700
     11 H2          -3.1000     0.0330     1.3290 hc         1 40R       0.038700
     12 H3          -0.5710     0.3680     1.7520 h1         1 40R       0.062200
     13 H4          -0.5520     1.6910     0.5720 h1         1 40R       0.062200
     14 H5           1.3650     1.6320    -1.3180 h5         1 40R       0.062100
     15 H6           3.5940    -1.4430     0.4960 h5         1 40R       0.063100
     16 H7          -5.0300    -0.1540    -0.2340 hc         1 40R       0.035700
     17 H8          -3.9270    -0.2180    -1.6260 hc         1 40R       0.035700
     18 H9          -3.9450    -1.5460    -0.4420 hc         1 40R       0.035700
     19 H10         -1.3820    -1.2040    -0.0300 hc         1 40R       0.058700
     20 H11         -1.3640     0.1110    -1.2050 hc         1 40R       0.058700
@<TRIPOS>BOND
     1     1     3 1   
     2     1     4 1   
     3     1     5 1   
     4     2     7 1   
     5     2     8 1   
     6     2    10 1   
     7     2    11 1   
     8     3     6 2   
     9     4     8 1   
    10     4    12 1   
    11     4    13 1   
    12     5     9 2   
    13     5    14 1   
    14     6     9 1   
    15     6    15 1   
    16     7    16 1   
    17     7    17 1   
    18     7    18 1   
    19     8    19 1   
    20     8    20 1   
@<TRIPOS>SUBSTRUCTURE
     1 40R         1 TEMP              0 ****  ****    0 ROOT
