@<TRIPOS>MOLECULE
40R
   20    20     1     0     0
SMALL
bcc


@<TRIPOS>ATOM
      1 N1           0.8970     0.3000     0.2670 na         1 40R      -0.031400
      2 C2          -2.9150     0.2630     0.2490 c3         1 40R      -0.074400
      3 N3           1.4170    -0.8560     0.6850 nc         1 40R      -0.542800
      4 C4          -0.4580     0.6840     0.6030 c3         1 40R       0.059300
      5 C5           1.7840     0.9420    -0.4960 cc         1 40R       0.406400
      6 C6           2.6160    -0.8510     0.1500 cd         1 40R       0.515900
      7 C1          -3.9710    -0.5340    -0.5030 c3         1 40R      -0.089100
      8 C3          -1.4980    -0.1410    -0.1410 c3         1 40R      -0.097400
      9 N2           2.8930     0.2400    -0.5910 nd         1 40R      -0.699000
     10 H1          -3.0550     1.3310     0.0570 hc         1 40R       0.038700
     11 H2          -3.0470     0.1260     1.3270 hc         1 40R       0.038700
     12 H3          -0.5790     0.5830     1.6820 h1         1 40R       0.062200
     13 H4          -0.5600     1.7420     0.3590 h1         1 40R       0.062200
     14 H5           1.5850     1.9020    -0.9490 h5         1 40R       0.062100
     15 H6           3.3140    -1.6600     0.3040 h5         1 40R       0.063100
     16 H7          -4.9780    -0.2390    -0.2060 hc         1 40R       0.035700
     17 H8          -3.8850    -0.3840    -1.5800 hc         1 40R       0.035700
     18 H9          -3.8700    -1.6040    -0.3100 hc         1 40R       0.035700
     19 H10         -1.3450    -1.2010     0.0760 hc         1 40R       0.058700
     20 H11         -1.3580    -0.0120    -1.2180 hc         1 40R       0.058700
@<TRIPOS>BOND
     1     1     3 1   
     2     1     4 1   
     3     1     5 1   
     4     2     7 1   
     5     2     8 1   
     6     2    10 1   
     7     2    11 1   
     8     3     6 2   
     9     4     8 1   
    10     4    12 1   
    11     4    13 1   
    12     5     9 2   
    13     5    14 1   
    14     6     9 1   
    15     6    15 1   
    16     7    16 1   
    17     7    17 1   
    18     7    18 1   
    19     8    19 1   
    20     8    20 1   
@<TRIPOS>SUBSTRUCTURE
     1 40R         1 TEMP              0 ****  ****    0 ROOT
