@<TRIPOS>MOLECULE
40S
   22    21     1     0     0
SMALL
bcc


@<TRIPOS>ATOM
      1 C01         -0.0260     1.7370    -0.2870 c3         1 40S      -0.090100
      2 C02         -0.0200     0.3050     0.2410 c3         1 40S      -0.056700
      3 C03         -1.2720    -0.4650    -0.1870 c3         1 40S      -0.080400
      4 C04         -2.5640     0.1040     0.3660 c3         1 40S       0.141400
      5 O05         -3.6230    -0.7690     0.0280 oh         1 40S      -0.600800
      6 C06          1.2290    -0.4620    -0.2000 c3         1 40S      -0.080400
      7 C07          2.5230     0.0910     0.3670 c3         1 40S       0.141400
      8 O08          3.5800    -0.7740     0.0030 oh         1 40S      -0.600800
      9 H1          -0.0490     1.7460    -1.3800 hc         1 40S       0.033033
     10 H2          -0.8910     2.2990     0.0650 hc         1 40S       0.033033
     11 H3           0.8590     2.2920     0.0270 hc         1 40S       0.033033
     12 H4          -0.0150     0.3420     1.3390 hc         1 40S       0.042700
     13 H5          -1.3230    -0.4970    -1.2820 hc         1 40S       0.054450
     14 H6          -1.1780    -1.5020     0.1520 hc         1 40S       0.054450
     15 H7          -2.4710     0.2140     1.4560 h1         1 40S       0.015700
     16 H8          -2.7440     1.1080    -0.0380 h1         1 40S       0.015700
     17 H9          -4.4410    -0.3910     0.3600 ho         1 40S       0.403000
     18 H10          1.1310    -1.5040     0.1190 hc         1 40S       0.054450
     19 H11          1.2810    -0.4730    -1.2950 hc         1 40S       0.054450
     20 H12          2.7020     1.1060    -0.0090 h1         1 40S       0.015700
     21 H13          2.4300     0.1700     1.4590 h1         1 40S       0.015700
     22 H14          4.3990    -0.4090     0.3490 ho         1 40S       0.403000
@<TRIPOS>BOND
     1     1     2 1   
     2     1     9 1   
     3     1    10 1   
     4     1    11 1   
     5     2     3 1   
     6     2     6 1   
     7     2    12 1   
     8     3     4 1   
     9     3    13 1   
    10     3    14 1   
    11     4     5 1   
    12     4    15 1   
    13     4    16 1   
    14     5    17 1   
    15     6     7 1   
    16     6    18 1   
    17     6    19 1   
    18     7     8 1   
    19     7    20 1   
    20     7    21 1   
    21     8    22 1   
@<TRIPOS>SUBSTRUCTURE
     1 40S         1 TEMP              0 ****  ****    0 ROOT
