@<TRIPOS>MOLECULE
40S
   22    21     1     0     0
SMALL
No Charge or Current Charge


@<TRIPOS>ATOM
      1 C01         -0.0200     1.7560    -0.2760 c3         1 40S      -0.090100
      2 C02         -0.0220     0.2950     0.2440 c3         1 40S      -0.056700
      3 C03         -1.3010    -0.4790    -0.1860 c3         1 40S      -0.080400
      4 C04         -2.6250     0.1020     0.3580 c3         1 40S       0.164600
      5 O05         -3.7120    -0.7570    -0.0020 oh         1 40S      -0.663000
      6 C06          1.2540    -0.4830    -0.1900 c3         1 40S      -0.080400
      7 C07          2.5820     0.0950     0.3500 c3         1 40S       0.164600
      8 O08          3.6650    -0.7680    -0.0140 oh         1 40S      -0.663000
      9 H1          -0.0220     1.7800    -1.3730 hc         1 40S       0.033033
     10 H2          -0.8980     2.3070     0.0800 hc         1 40S       0.033033
     11 H3           0.8600     2.3040     0.0770 hc         1 40S       0.033033
     12 H4          -0.0200     0.3360     1.3410 hc         1 40S       0.042700
     13 H5          -1.3510    -0.5190    -1.2810 hc         1 40S       0.054450
     14 H6          -1.2180    -1.5170     0.1610 hc         1 40S       0.054450
     15 H7          -2.5600     0.1900     1.4510 h1         1 40S       0.015700
     16 H8          -2.7900     1.1050    -0.0550 h1         1 40S       0.015700
     17 H9          -4.5290    -0.3520     0.3660 ho         1 40S       0.442000
     18 H10          1.1700    -1.5200     0.1580 hc         1 40S       0.054450
     19 H11          1.3000    -0.5230    -1.2850 hc         1 40S       0.054450
     20 H12          2.7480     1.0970    -0.0650 h1         1 40S       0.015700
     21 H13          2.5210     0.1830     1.4430 h1         1 40S       0.015700
     22 H14          4.4840    -0.3650     0.3510 ho         1 40S       0.442000
@<TRIPOS>BOND
     1     1     2 1   
     2     1     9 1   
     3     1    10 1   
     4     1    11 1   
     5     2     3 1   
     6     2     6 1   
     7     2    12 1   
     8     3     4 1   
     9     3    13 1   
    10     3    14 1   
    11     4     5 1   
    12     4    15 1   
    13     4    16 1   
    14     5    17 1   
    15     6     7 1   
    16     6    18 1   
    17     6    19 1   
    18     7     8 1   
    19     7    20 1   
    20     7    21 1   
    21     8    22 1   
@<TRIPOS>SUBSTRUCTURE
     1 40S         1 TEMP              0 ****  ****    0 ROOT
