@<TRIPOS>MOLECULE
40T
   38    38     1     0     0
SMALL
abcg2


@<TRIPOS>ATOM
      1 C           -2.9300    -2.0290     0.5710 c          1 40T       0.698000
      2 N1           1.5930    -0.6060     0.4160 n          1 40T      -0.277000
      3 C2           2.1220    -1.2360    -0.6830 c          1 40T       0.617000
      4 O2           1.5030    -2.0360    -1.3540 o          1 40T      -0.522000
      5 N3           3.4260    -0.9050    -0.9500 ns         1 40T      -0.468500
      6 C4           4.2240     0.0090    -0.2860 c          1 40T       0.596200
      7 O4           5.3700     0.2110    -0.6490 o          1 40T      -0.569000
      8 C5           3.5800     0.6680     0.8330 cc         1 40T      -0.303400
      9 C6           2.3070     0.3340     1.1060 cd         1 40T       0.026600
     10 C7           4.3480     1.6780     1.6200 c3         1 40T      -0.006900
     11 N2          -2.0330     3.1310     0.3370 n8         1 40T      -0.983200
     12 O1          -2.4970    -2.3610    -0.5440 o          1 40T      -0.714500
     13 C1          -3.2190     2.3800    -0.0410 c3         1 40T       0.133500
     14 C2M         -4.1830     3.1440    -0.9460 c3         1 40T      -0.127100
     15 C3          -2.8110     1.0740    -0.7220 c3         1 40T       0.109000
     16 N4          -1.9490     0.2460     0.0960 n          1 40T      -0.340800
     17 C9          -2.6070    -0.6000     1.0670 c3         1 40T      -0.065000
     18 C10         -0.6370     0.1860    -0.1650 c          1 40T       0.611100
     19 O7          -0.0770     0.8390    -1.0340 o          1 40T      -0.656100
     20 C8           0.1860    -0.7710     0.6980 c3         1 40T       0.010000
     21 HN3          3.8390    -1.3770    -1.7440 hn         1 40T       0.332500
     22 H6           1.7740     0.7950     1.9260 h4         1 40T       0.201000
     23 H22         -3.7490     2.1310     0.8860 h1         1 40T       0.059700
     24 H13         -3.7090     0.5000    -0.9690 h1         1 40T       0.061700
     25 H23         -2.3110     1.2960    -1.6650 h1         1 40T       0.061700
     26 H15         -3.5380    -0.1090     1.3590 h1         1 40T       0.030700
     27 H25         -2.0260    -0.6630     1.9900 h1         1 40T       0.030700
     28 H7           3.7410     2.0820     2.4290 hc         1 40T       0.035033
     29 H7A          5.2450     1.2410     2.0620 hc         1 40T       0.035033
     30 H7B          4.6710     2.5120     0.9960 hc         1 40T       0.035033
     31 HXT         -0.1150    -1.7980     0.5000 h1         1 40T       0.100700
     32 H28          0.0380    -0.5880     1.7610 h1         1 40T       0.100700
     33 H2M         -5.0850     2.5690    -1.1620 hc         1 40T       0.030367
     34 H2MA        -4.4910     4.0780    -0.4740 hc         1 40T       0.030367
     35 H2MB        -3.7060     3.3910    -1.8970 hc         1 40T       0.030367
     36 OXT         -3.5990    -2.7130     1.3690 o          1 40T      -0.714500
     37 HN1         -1.5190     3.3930    -0.4960 hn         1 40T       0.385500
     38 HNXT        -2.3130     4.0010     0.7750 hn         1 40T       0.385500
@<TRIPOS>BOND
     1     1    12 1   
     2     1    17 1   
     3     1    36 1   
     4     2     3 1   
     5     2     9 1   
     6     2    20 1   
     7     3     4 2   
     8     3     5 1   
     9     5     6 1   
    10     5    21 1   
    11     6     7 2   
    12     6     8 1   
    13     8     9 2   
    14     8    10 1   
    15     9    22 1   
    16    10    28 1   
    17    10    29 1   
    18    10    30 1   
    19    11    13 1   
    20    11    37 1   
    21    11    38 1   
    22    13    14 1   
    23    13    15 1   
    24    13    23 1   
    25    14    33 1   
    26    14    34 1   
    27    14    35 1   
    28    15    16 1   
    29    15    24 1   
    30    15    25 1   
    31    16    17 1   
    32    16    18 1   
    33    17    26 1   
    34    17    27 1   
    35    18    19 2   
    36    18    20 1   
    37    20    31 1   
    38    20    32 1   
@<TRIPOS>SUBSTRUCTURE
     1 40T         1 TEMP              0 ****  ****    0 ROOT
