@<TRIPOS>MOLECULE
40T
   38    38     1     0     0
SMALL
No Charge or Current Charge


@<TRIPOS>ATOM
      1 C           -2.9190    -2.1400     0.5160 c          1 40T       0.698000
      2 N1           1.7010    -0.3520     0.3640 n          1 40T      -0.277000
      3 C2           2.2120    -0.9520    -0.8060 c          1 40T       0.617000
      4 O2           1.5340    -1.6300    -1.5620 o          1 40T      -0.522000
      5 N3           3.5310    -0.7420    -1.0560 ns         1 40T      -0.468500
      6 C4           4.4210    -0.0240    -0.3270 c          1 40T       0.596200
      7 O4           5.5850     0.0770    -0.6800 o          1 40T      -0.569000
      8 C5           3.8500     0.5970     0.8890 cc         1 40T      -0.303400
      9 C6           2.5170     0.4160     1.1910 cd         1 40T       0.026600
     10 C7           4.8050     1.4110     1.7310 c3         1 40T      -0.006900
     11 N2          -2.2710     3.3430     0.0380 n8         1 40T      -0.983200
     12 O1          -2.1560    -3.0290     0.8610 o          1 40T      -0.714500
     13 C1          -3.4340     2.4310    -0.0050 c3         1 40T       0.133500
     14 C2M         -4.6070     3.1330    -0.7140 c3         1 40T      -0.127100
     15 C3          -3.0690     1.0750    -0.6720 c3         1 40T       0.109000
     16 N4          -2.1050     0.2620     0.1150 n          1 40T      -0.340800
     17 C9          -2.6860    -0.7170     1.0830 c3         1 40T      -0.065000
     18 C10         -0.7090     0.3920    -0.0990 c          1 40T       0.611100
     19 O7          -0.2810     1.2440    -0.8740 o          1 40T      -0.656100
     20 C8           0.2550    -0.5310     0.6850 c3         1 40T       0.010000
     21 HN3          3.8930    -1.1750    -1.8900 hn         1 40T       0.332500
     22 H6           2.0160     0.8390     2.0580 h4         1 40T       0.201000
     23 H22         -3.7340     2.2160     1.0310 h1         1 40T       0.059700
     24 H13         -3.9910     0.4910    -0.7940 h1         1 40T       0.061700
     25 H23         -2.6760     1.2500    -1.6820 h1         1 40T       0.061700
     26 H15         -3.6570    -0.3380     1.4260 h1         1 40T       0.030700
     27 H25         -2.0500    -0.7900     1.9740 h1         1 40T       0.030700
     28 H7           4.3010     1.8330     2.6090 hc         1 40T       0.035033
     29 H7A          5.6370     0.7940     2.0910 hc         1 40T       0.035033
     30 H7B          5.2240     2.2460     1.1560 hc         1 40T       0.035033
     31 HXT         -0.0350    -1.5660     0.4780 h1         1 40T       0.100700
     32 H28          0.0900    -0.3510     1.7530 h1         1 40T       0.100700
     33 H2M         -5.4980     2.4940    -0.7030 hc         1 40T       0.030367
     34 H2MA        -4.8630     4.0730    -0.2090 hc         1 40T       0.030367
     35 H2MB        -4.3610     3.3570    -1.7600 hc         1 40T       0.030367
     36 OXT         -3.8450    -2.3070    -0.2650 o          1 40T      -0.714500
     37 HN1         -1.4310     2.7840    -0.1740 hn         1 40T       0.385500
     38 HNXT        -2.3280     3.9830    -0.7610 hn         1 40T       0.385500
@<TRIPOS>BOND
     1     1    12 1   
     2     1    17 1   
     3     1    36 1   
     4     2     3 1   
     5     2     9 1   
     6     2    20 1   
     7     3     4 2   
     8     3     5 1   
     9     5     6 1   
    10     5    21 1   
    11     6     7 2   
    12     6     8 1   
    13     8     9 2   
    14     8    10 1   
    15     9    22 1   
    16    10    28 1   
    17    10    29 1   
    18    10    30 1   
    19    11    13 1   
    20    11    37 1   
    21    11    38 1   
    22    13    14 1   
    23    13    15 1   
    24    13    23 1   
    25    14    33 1   
    26    14    34 1   
    27    14    35 1   
    28    15    16 1   
    29    15    24 1   
    30    15    25 1   
    31    16    17 1   
    32    16    18 1   
    33    17    26 1   
    34    17    27 1   
    35    18    19 2   
    36    18    20 1   
    37    20    31 1   
    38    20    32 1   
@<TRIPOS>SUBSTRUCTURE
     1 40T         1 TEMP              0 ****  ****    0 ROOT
