@<TRIPOS>MOLECULE
40U
   62    64     1     0     0
SMALL
abcg2


@<TRIPOS>ATOM
      1 C13          5.1330    -0.5950     0.3420 c          1 40U       0.602100
      2 C18          2.4590    -2.1680    -0.5920 c3         1 40U      -0.073700
      3 C17          8.6950     0.8390     0.6780 cx         1 40U      -0.130900
      4 C16          7.6560     1.0910     1.7310 cx         1 40U      -0.130900
      5 C15          7.5510    -0.1120     0.8490 cx         1 40U      -0.107700
      6 C19          1.1080    -2.6740    -0.1060 c3         1 40U      -0.088100
      7 C20          2.6230    -2.4090    -2.0870 c3         1 40U      -0.088100
      8 C21         -2.4270     2.3860    -1.6540 c3         1 40U      -0.085100
      9 C22         -1.7780     0.0110    -1.8800 c3         1 40U      -0.085100
     10 C11          1.8190     0.2980    -0.8750 c          1 40U       0.602100
     11 C12          2.7320    -0.7040    -0.1640 c3         1 40U       0.046700
     12 C           -6.2280    -0.3980     0.5480 ca         1 40U       0.124000
     13 C5          -5.2060    -1.3260     0.4420 ca         1 40U      -0.107000
     14 C4          -3.8910    -0.8860     0.4180 ca         1 40U      -0.091000
     15 C3          -3.5700     0.4690     0.4990 ca         1 40U      -0.111300
     16 C2          -4.6240     1.3750     0.6120 ca         1 40U      -0.091000
     17 C1          -5.9460     0.9550     0.6340 ca         1 40U      -0.107000
     18 C6          -2.1320     0.9770     0.4640 c6         1 40U       0.244300
     19 O2          -2.0530     2.2210     1.1320 oh         1 40U      -0.658000
     20 C10         -1.1720    -0.0070     1.1480 c6         1 40U      -0.121400
     21 C9           0.2750     0.4570     1.0900 c6         1 40U       0.108000
     22 N            0.6820     0.7100    -0.2820 n          1 40U      -0.396800
     23 C8          -0.1700     1.6830    -0.9470 c6         1 40U       0.091000
     24 C7          -1.6440     1.2500    -0.9930 c6         1 40U      -0.036000
     25 O            2.1530     0.6880    -1.9900 o          1 40U      -0.622100
     26 N1           4.0910    -0.3100    -0.4590 ns         1 40U      -0.507900
     27 O1           5.0100    -1.1660     1.4170 o          1 40U      -0.608100
     28 C14          6.4810    -0.1690    -0.2060 c3         1 40U      -0.127400
     29 H1           3.2290    -2.7480    -0.0730 hc         1 40U       0.065700
     30 H2           8.6980     1.4800    -0.1970 hc         1 40U       0.070950
     31 H3           9.6790     0.5190     0.9950 hc         1 40U       0.070950
     32 H4           7.9300     0.9480     2.7680 hc         1 40U       0.070950
     33 H5           6.9540     1.9000     1.5660 hc         1 40U       0.070950
     34 H6           7.7930    -1.0630     1.3090 hc         1 40U       0.092700
     35 H7           0.2800    -2.1820    -0.6190 hc         1 40U       0.036700
     36 H8           1.0140    -3.7430    -0.3010 hc         1 40U       0.036700
     37 H9           0.9780    -2.5270     0.9680 hc         1 40U       0.036700
     38 H10          1.8280    -1.9380    -2.6670 hc         1 40U       0.036700
     39 H11          3.5790    -2.0390    -2.4610 hc         1 40U       0.036700
     40 H12          2.5860    -3.4790    -2.2910 hc         1 40U       0.036700
     41 H13         -3.4730     2.1160    -1.8020 hc         1 40U       0.041200
     42 H14         -2.3940     3.3110    -1.0790 hc         1 40U       0.041200
     43 H15         -2.0060     2.5930    -2.6400 hc         1 40U       0.041200
     44 H16         -1.3460     0.2180    -2.8610 hc         1 40U       0.041200
     45 H17         -1.2690    -0.8670    -1.4820 hc         1 40U       0.041200
     46 H18         -2.8220    -0.2570    -2.0370 hc         1 40U       0.041200
     47 H19          2.6190    -0.6520     0.9190 h1         1 40U       0.080700
     48 H21         -3.1180    -1.6380     0.3400 ha         1 40U       0.123000
     49 H22         -4.4250     2.4350     0.6880 ha         1 40U       0.123000
     50 H23         -6.7430     1.6810     0.7200 ha         1 40U       0.130500
     51 H24         -2.2640     2.0840     2.0630 ho         1 40U       0.446000
     52 H25         -1.4600    -0.1280     2.1960 hc         1 40U       0.056200
     53 H26         -1.2370    -0.9980     0.7020 hc         1 40U       0.056200
     54 H27          0.4040     1.3730     1.6730 h1         1 40U       0.054200
     55 H28          0.9010    -0.2990     1.5520 h1         1 40U       0.054200
     56 H29         -0.0730     2.6440    -0.4330 h1         1 40U       0.068700
     57 H30          0.1850     1.8260    -1.9650 h1         1 40U       0.068700
     58 H31          4.2610     0.1370    -1.3470 hn         1 40U       0.335500
     59 H32          6.7610    -0.8790    -0.9910 hc         1 40U       0.060700
     60 H33          6.3880     0.8000    -0.7050 hc         1 40U       0.060700
     61 H20         -5.4240    -2.3830     0.3810 ha         1 40U       0.130500
     62 CL          -7.8760    -0.9350     0.5790 cl         1 40U      -0.201000
@<TRIPOS>BOND
     1     1    26 1   
     2     1    27 2   
     3     1    28 1   
     4     2     6 1   
     5     2     7 1   
     6     2    11 1   
     7     2    29 1   
     8     3     4 1   
     9     3     5 1   
    10     3    30 1   
    11     3    31 1   
    12     4     5 1   
    13     4    32 1   
    14     4    33 1   
    15     5    28 1   
    16     5    34 1   
    17     6    35 1   
    18     6    36 1   
    19     6    37 1   
    20     7    38 1   
    21     7    39 1   
    22     7    40 1   
    23     8    24 1   
    24     8    41 1   
    25     8    42 1   
    26     8    43 1   
    27     9    24 1   
    28     9    44 1   
    29     9    45 1   
    30     9    46 1   
    31    10    11 1   
    32    10    22 1   
    33    10    25 2   
    34    11    26 1   
    35    11    47 1   
    36    12    13 ar  
    37    12    17 ar  
    38    12    62 1   
    39    13    14 ar  
    40    13    61 1   
    41    14    15 ar  
    42    14    48 1   
    43    15    16 ar  
    44    15    18 1   
    45    16    17 ar  
    46    16    49 1   
    47    17    50 1   
    48    18    19 1   
    49    18    20 1   
    50    18    24 1   
    51    19    51 1   
    52    20    21 1   
    53    20    52 1   
    54    20    53 1   
    55    21    22 1   
    56    21    54 1   
    57    21    55 1   
    58    22    23 1   
    59    23    24 1   
    60    23    56 1   
    61    23    57 1   
    62    26    58 1   
    63    28    59 1   
    64    28    60 1   
@<TRIPOS>SUBSTRUCTURE
     1 40U         1 TEMP              0 ****  ****    0 ROOT
