@<TRIPOS>MOLECULE
40U
   62    64     1     0     0
SMALL
No Charge or Current Charge


@<TRIPOS>ATOM
      1 C13          5.4570    -1.2290     0.4100 c          1 40U       0.602100
      2 C18          2.6330    -2.2910    -0.8530 c3         1 40U      -0.073700
      3 C17          8.3040     1.3930     0.7050 cx         1 40U      -0.130900
      4 C16          6.8750     1.7040     1.0850 cx         1 40U      -0.130900
      5 C15          7.3650     0.2740     1.0930 cx         1 40U      -0.107700
      6 C19          1.2840    -2.9010    -0.4080 c3         1 40U      -0.088100
      7 C20          2.7130    -2.1890    -2.3960 c3         1 40U      -0.088100
      8 C21         -2.3100     2.4220    -1.5630 c3         1 40U      -0.085100
      9 C22         -1.9340    -0.0190    -1.9020 c3         1 40U      -0.085100
     10 C11          2.1450     0.2840    -0.6290 c          1 40U       0.602100
     11 C12          2.9920    -0.9440    -0.1370 c3         1 40U       0.046700
     12 C           -6.4180     0.0420     0.7200 ca         1 40U       0.124000
     13 C5          -5.5050    -1.0160     0.6320 ca         1 40U      -0.107000
     14 C4          -4.1240    -0.7580     0.5770 ca         1 40U      -0.091000
     15 C3          -3.6270     0.5710     0.6120 ca         1 40U      -0.111300
     16 C2          -4.5740     1.6260     0.6940 ca         1 40U      -0.091000
     17 C1          -5.9530     1.3630     0.7480 ca         1 40U      -0.107000
     18 C6          -2.0990     0.8950     0.5490 c6         1 40U       0.244300
     19 O2          -1.8850     2.0580     1.3680 oh         1 40U      -0.658000
     20 C10         -1.2190    -0.2440     1.1550 c6         1 40U      -0.121400
     21 C9           0.3000     0.0390     1.0640 c6         1 40U       0.108000
     22 N            0.7650     0.3530    -0.3190 n          1 40U      -0.396800
     23 C8          -0.0640     1.4210    -0.9580 c6         1 40U       0.091000
     24 C7          -1.6080     1.1720    -0.9340 c6         1 40U      -0.036000
     25 O            2.6570     1.1440    -1.3420 o          1 40U      -0.622100
     26 N1           4.4330    -0.6410    -0.2980 ns         1 40U      -0.507900
     27 O1           5.2560    -2.0730     1.2720 o          1 40U      -0.608100
     28 C14          6.8610    -0.7270     0.0540 c3         1 40U      -0.127400
     29 H1           3.3940    -3.0200    -0.5490 hc         1 40U       0.065700
     30 H2           8.5810     1.4920    -0.3420 hc         1 40U       0.070950
     31 H3           9.0870     1.6640     1.4090 hc         1 40U       0.070950
     32 H4           6.6990     2.1840     2.0450 hc         1 40U       0.070950
     33 H5           6.1970     2.0120     0.2930 hc         1 40U       0.070950
     34 H6           7.5190    -0.1800     2.0710 hc         1 40U       0.092700
     35 H7           0.4380    -2.2980    -0.7550 hc         1 40U       0.036700
     36 H8           1.1650    -3.9080    -0.8260 hc         1 40U       0.036700
     37 H9           1.2340    -2.9870     0.6840 hc         1 40U       0.036700
     38 H10          1.9440    -1.5120    -2.7880 hc         1 40U       0.036700
     39 H11          3.6940    -1.8190    -2.7170 hc         1 40U       0.036700
     40 H12          2.5610    -3.1740    -2.8550 hc         1 40U       0.036700
     41 H13         -3.3900     2.2730    -1.6770 hc         1 40U       0.041200
     42 H14         -2.1600     3.3230    -0.9560 hc         1 40U       0.041200
     43 H15         -1.9130     2.6420    -2.5620 hc         1 40U       0.041200
     44 H16         -1.5880     0.1930    -2.9210 hc         1 40U       0.041200
     45 H17         -1.4510    -0.9520    -1.5970 hc         1 40U       0.041200
     46 H18         -3.0120    -0.2100    -1.9660 hc         1 40U       0.041200
     47 H19          2.8130    -1.0600     0.9380 h1         1 40U       0.080700
     48 H21         -3.4590    -1.6120     0.4950 ha         1 40U       0.123000
     49 H22         -4.2480     2.6630     0.7060 ha         1 40U       0.123000
     50 H23         -6.6620     2.1850     0.8100 ha         1 40U       0.130500
     51 H24         -2.3620     1.8870     2.2060 ho         1 40U       0.446000
     52 H25         -1.4950    -0.4190     2.2040 hc         1 40U       0.056200
     53 H26         -1.3910    -1.1950     0.6420 hc         1 40U       0.056200
     54 H27          0.5510     0.8870     1.7160 h1         1 40U       0.054200
     55 H28          0.8280    -0.8340     1.4650 h1         1 40U       0.054200
     56 H29          0.1520     2.3710    -0.4490 h1         1 40U       0.068700
     57 H30          0.2530     1.5470    -2.0030 h1         1 40U       0.068700
     58 H31          4.6920     0.0770    -0.9660 hn         1 40U       0.335500
     59 H32          7.5460    -1.5830     0.0280 hc         1 40U       0.060700
     60 H33          6.8390    -0.2440    -0.9300 hc         1 40U       0.060700
     61 H20         -5.8680    -2.0410     0.6030 ha         1 40U       0.130500
     62 Cl          -8.1450    -0.2860     0.7850 cl         1 40U      -0.201000
@<TRIPOS>BOND
     1     1    26 1   
     2     1    27 2   
     3     1    28 1   
     4     2     6 1   
     5     2     7 1   
     6     2    11 1   
     7     2    29 1   
     8     3     4 1   
     9     3     5 1   
    10     3    30 1   
    11     3    31 1   
    12     4     5 1   
    13     4    32 1   
    14     4    33 1   
    15     5    28 1   
    16     5    34 1   
    17     6    35 1   
    18     6    36 1   
    19     6    37 1   
    20     7    38 1   
    21     7    39 1   
    22     7    40 1   
    23     8    24 1   
    24     8    41 1   
    25     8    42 1   
    26     8    43 1   
    27     9    24 1   
    28     9    44 1   
    29     9    45 1   
    30     9    46 1   
    31    10    11 1   
    32    10    22 1   
    33    10    25 2   
    34    11    26 1   
    35    11    47 1   
    36    12    13 ar  
    37    12    17 ar  
    38    12    62 1   
    39    13    14 ar  
    40    13    61 1   
    41    14    15 ar  
    42    14    48 1   
    43    15    16 ar  
    44    15    18 1   
    45    16    17 ar  
    46    16    49 1   
    47    17    50 1   
    48    18    19 1   
    49    18    20 1   
    50    18    24 1   
    51    19    51 1   
    52    20    21 1   
    53    20    52 1   
    54    20    53 1   
    55    21    22 1   
    56    21    54 1   
    57    21    55 1   
    58    22    23 1   
    59    23    24 1   
    60    23    56 1   
    61    23    57 1   
    62    26    58 1   
    63    28    59 1   
    64    28    60 1   
@<TRIPOS>SUBSTRUCTURE
     1 40U         1 TEMP              0 ****  ****    0 ROOT
