@<TRIPOS>MOLECULE
40V
   69    73     1     0     0
SMALL
No Charge or Current Charge


@<TRIPOS>ATOM
      1 C10         -3.1980    -0.4640    -0.9290 ca         1 40V      -0.291600
      2 C13         -4.6350     1.0200     0.4190 ca         1 40V       0.217000
      3 C15         -3.3450     0.6200    -0.0420 ca         1 40V       0.283100
      4 C17          6.2420     1.4180    -0.3680 c5         1 40V      -0.033100
      5 C20          1.0710     0.9950    -1.5700 c6         1 40V      -0.070400
      6 C21          3.5200     1.6960    -1.6010 c6         1 40V       0.163800
      7 C22          2.9550    -0.5900    -0.9320 c6         1 40V       0.166800
      8 C24          5.3510     0.1740    -0.7800 c5         1 40V       0.177500
      9 C26          0.5400    -1.4310    -0.8680 c3         1 40V       0.100000
     10 C28         -0.5680    -1.2810     2.0950 c3         1 40V       0.143600
     11 C01          9.6530     0.4330     1.1400 ca         1 40V      -0.111000
     12 C02          9.3280    -0.8840     1.5270 ca         1 40V      -0.111000
     13 C03         -7.1580     1.8010     1.2750 ca         1 40V      -0.137000
     14 C04         -7.0580     0.7210     0.3860 ca         1 40V      -0.068000
     15 C05          8.6880     1.2440     0.5110 ca         1 40V      -0.096000
     16 C06          8.0370    -1.3940     1.2870 ca         1 40V      -0.096000
     17 C07         -4.3340    -1.1350    -1.4060 ca         1 40V       0.043000
     18 C08         -5.9900     2.4430     1.7000 ca         1 40V       0.338900
     19 C09         -5.7780     0.3050    -0.0520 ca         1 40V       0.003000
     20 C11          7.4080     0.7170     0.2770 ca         1 40V      -0.088300
     21 C12          7.0900    -0.5720     0.6560 ca         1 40V      -0.088300
     22 C14         -5.6180    -0.7740    -0.9620 ca         1 40V      -0.217200
     23 C16         -1.8540    -0.9070    -1.4140 c          1 40V       0.623700
     24 C18          5.6640    -0.9220     0.3200 c5         1 40V      -0.033100
     25 C19          2.0620     2.1600    -1.3710 c6         1 40V      -0.075400
     26 C23          1.4750    -0.2030    -0.6740 c6         1 40V      -0.076700
     27 C25         -0.2820     0.7930     3.3060 c3         1 40V       0.151900
     28 C27         -1.2700    -1.8490     0.8430 c3         1 40V       0.096000
     29 N29         -4.7620     2.0690     1.2840 nb         1 40V      -0.624000
     30 N30          3.8960     0.5540    -0.7100 n3         1 40V      -0.715600
     31 N31         -0.8680    -1.2080    -0.4450 n          1 40V      -0.400800
     32 N32         -6.7710    -1.5640    -1.4730 no         1 40V       0.700200
     33 O33         -7.4900    -2.1320    -0.6420 o          1 40V      -0.404000
     34 O34         -1.6190    -0.9360    -2.6140 o          1 40V      -0.573100
     35 O35         -6.8100    -1.7950    -2.6880 o          1 40V      -0.404000
     36 O36         -2.2360     1.3420     0.3180 oh         1 40V      -0.524100
     37 O37         -0.9090     0.1140     2.2030 os         1 40V      -0.493000
     38 H1           6.5320     2.0240    -1.2330 hc         1 40V       0.058700
     39 H2           5.7360     2.0730     0.3510 hc         1 40V       0.058700
     40 H3           0.0550     1.3330    -1.3310 hc         1 40V       0.053700
     41 H4           1.0640     0.6900    -2.6260 hc         1 40V       0.053700
     42 H5           3.6430     1.4080    -2.6560 h1         1 40V       0.033700
     43 H6           4.1730     2.5640    -1.4310 h1         1 40V       0.033700
     44 H7           3.1980    -1.4290    -0.2660 h1         1 40V       0.031700
     45 H8           3.0570    -0.9640    -1.9620 h1         1 40V       0.031700
     46 H9           5.6360    -0.1890    -1.7780 h1         1 40V       0.027700
     47 H10          0.5780    -1.7420    -1.9200 h1         1 40V       0.056700
     48 H11          0.9530    -2.2660    -0.2860 h1         1 40V       0.056700
     49 H12         -0.9090    -1.8320     2.9810 h1         1 40V       0.039700
     50 H13          0.5170    -1.4160     2.0060 h1         1 40V       0.039700
     51 H14         10.6510     0.8240     1.3290 ha         1 40V       0.112000
     52 H15         10.0750    -1.5070     2.0140 ha         1 40V       0.112000
     53 H16         -8.1260     2.1420     1.6300 ha         1 40V       0.131000
     54 H17         -7.9710     0.2390     0.0490 ha         1 40V       0.150000
     55 H18          8.9300     2.2620     0.2130 ha         1 40V       0.113000
     56 H19          7.7790    -2.4080     1.5860 ha         1 40V       0.113000
     57 H20         -4.2120    -1.9640    -2.1050 ha         1 40V       0.153000
     58 H21         -6.0370     3.2850     2.3900 h4         1 40V       0.027100
     59 H22          5.0210    -0.8230     1.2020 hc         1 40V       0.058700
     60 H23          5.5550    -1.9410    -0.0680 hc         1 40V       0.058700
     61 H24          1.8200     2.9800    -2.0600 hc         1 40V       0.045700
     62 H25          1.9620     2.5640    -0.3540 hc         1 40V       0.045700
     63 H26          1.3840     0.1010     0.3770 hc         1 40V       0.053700
     64 H27         -0.5680     0.3340     4.2610 h1         1 40V       0.041367
     65 H28          0.8110     0.7580     3.2160 h1         1 40V       0.041367
     66 H29         -0.5880     1.8470     3.3300 h1         1 40V       0.041367
     67 H30         -1.0360    -2.9200     0.7780 h1         1 40V       0.062200
     68 H31         -2.3530    -1.7810     0.9960 h1         1 40V       0.062200
     69 H33         -1.7470     0.8270     1.0140 ho         1 40V       0.525000
@<TRIPOS>BOND
     1     1     3 ar  
     2     1    17 ar  
     3     1    23 1   
     4     2     3 ar  
     5     2    19 ar  
     6     2    29 ar  
     7     3    36 1   
     8     4     8 1   
     9     4    20 1   
    10     4    38 1   
    11     4    39 1   
    12     5    25 1   
    13     5    26 1   
    14     5    40 1   
    15     5    41 1   
    16     6    25 1   
    17     6    30 1   
    18     6    42 1   
    19     6    43 1   
    20     7    26 1   
    21     7    30 1   
    22     7    44 1   
    23     7    45 1   
    24     8    24 1   
    25     8    30 1   
    26     8    46 1   
    27     9    26 1   
    28     9    31 1   
    29     9    47 1   
    30     9    48 1   
    31    10    28 1   
    32    10    37 1   
    33    10    49 1   
    34    10    50 1   
    35    11    12 ar  
    36    11    15 ar  
    37    11    51 1   
    38    12    16 ar  
    39    12    52 1   
    40    13    14 ar  
    41    13    18 ar  
    42    13    53 1   
    43    14    19 ar  
    44    14    54 1   
    45    15    20 ar  
    46    15    55 1   
    47    16    21 ar  
    48    16    56 1   
    49    17    22 ar  
    50    17    57 1   
    51    18    29 ar  
    52    18    58 1   
    53    19    22 ar  
    54    20    21 ar  
    55    21    24 1   
    56    22    32 1   
    57    23    31 1   
    58    23    34 2   
    59    24    59 1   
    60    24    60 1   
    61    25    61 1   
    62    25    62 1   
    63    26    63 1   
    64    27    37 1   
    65    27    64 1   
    66    27    65 1   
    67    27    66 1   
    68    28    31 1   
    69    28    67 1   
    70    28    68 1   
    71    32    33 1   
    72    32    35 1   
    73    36    69 1   
@<TRIPOS>SUBSTRUCTURE
     1 40V         1 TEMP              0 ****  ****    0 ROOT
