@<TRIPOS>MOLECULE
40V
   69    73     1     0     0
SMALL
abcg2


@<TRIPOS>ATOM
      1 C10         -3.1270    -0.4590    -0.6110 ca         1 40V      -0.291600
      2 C13         -5.0340     0.8430     0.1540 ca         1 40V       0.217000
      3 C15         -3.6170     0.6230     0.0950 ca         1 40V       0.283100
      4 C17          6.3110     1.2620    -0.2160 c5         1 40V      -0.033100
      5 C20          1.0860     1.2760    -0.6800 c6         1 40V      -0.070400
      6 C21          3.5080     1.8940    -0.8420 c6         1 40V       0.163800
      7 C22          2.9240    -0.4110    -0.5770 c6         1 40V       0.166800
      8 C24          5.2370     0.2350    -0.6290 c5         1 40V       0.177500
      9 C26          0.5930    -1.2300    -0.4010 c3         1 40V       0.100000
     10 C28         -0.6280    -0.7140     2.4180 c3         1 40V       0.143600
     11 C01          9.8570    -0.1530     0.1660 ca         1 40V      -0.111000
     12 C02          9.5120    -1.4940     0.2960 ca         1 40V      -0.111000
     13 C03         -7.6940     1.3990     0.2750 ca         1 40V      -0.137000
     14 C04         -7.3100     0.2630    -0.3790 ca         1 40V      -0.068000
     15 C05          8.8720     0.8150    -0.0100 ca         1 40V      -0.096000
     16 C06          8.1770    -1.8860     0.2530 ca         1 40V      -0.096000
     17 C07         -4.0180    -1.3450    -1.2280 ca         1 40V       0.043000
     18 C08         -6.7150     2.2120     0.8700 ca         1 40V       0.338900
     19 C09         -5.9360    -0.0680    -0.4510 ca         1 40V       0.003000
     20 C11          7.5430     0.4220    -0.0530 ca         1 40V      -0.088300
     21 C12          7.1980    -0.9200     0.0780 ca         1 40V      -0.088300
     22 C14         -5.3730    -1.1900    -1.1220 ca         1 40V      -0.217200
     23 C16         -1.6740    -0.6140    -0.9690 c          1 40V       0.623700
     24 C18          5.7080    -1.0830     0.0150 c5         1 40V      -0.033100
     25 C19          2.1340     2.3350    -0.3690 c6         1 40V      -0.075400
     26 C23          1.5220    -0.0560    -0.0850 c6         1 40V      -0.076700
     27 C25         -0.3030     1.5200     3.1400 c3         1 40V       0.151900
     28 C27         -1.2190    -1.5160     1.2750 c3         1 40V       0.096000
     29 N29         -5.4380     1.9480     0.8070 nb         1 40V      -0.624000
     30 N30          3.8920     0.6220    -0.2450 n3         1 40V      -0.715600
     31 N31         -0.8060    -1.0440    -0.0340 n          1 40V      -0.400800
     32 N32         -6.1950    -2.2200    -1.7170 no         1 40V       0.700200
     33 O33         -7.2780    -2.4480    -1.2250 o          1 40V      -0.404000
     34 O34         -1.3560    -0.3640    -2.1220 o          1 40V      -0.573100
     35 O35         -5.7510    -2.8270    -2.6660 o          1 40V      -0.404000
     36 O36         -2.8600     1.5240     0.6970 oh         1 40V      -0.524100
     37 O37         -0.8930     0.6520     2.1940 os         1 40V      -0.493000
     38 H1           6.4380     2.0660    -0.9430 hc         1 40V       0.058700
     39 H2           6.0340     1.7260     0.7380 hc         1 40V       0.058700
     40 H3           0.1150     1.5800    -0.2870 hc         1 40V       0.053700
     41 H4           0.9760     1.1770    -1.7650 hc         1 40V       0.053700
     42 H5           3.5090     1.8310    -1.9460 h1         1 40V       0.033700
     43 H6           4.2440     2.6530    -0.5730 h1         1 40V       0.033700
     44 H7           3.2330    -1.3490    -0.1110 h1         1 40V       0.031700
     45 H8           2.8880    -0.5950    -1.6670 h1         1 40V       0.031700
     46 H9           5.3070     0.1080    -1.7260 h1         1 40V       0.027700
     47 H10          0.6450    -1.4580    -1.4660 h1         1 40V       0.056700
     48 H11          0.9500    -2.1170     0.1290 h1         1 40V       0.056700
     49 H12         -1.0830    -1.0560     3.3560 h1         1 40V       0.039700
     50 H13          0.4520    -0.8790     2.5050 h1         1 40V       0.039700
     51 H14         10.8990     0.1390     0.1950 ha         1 40V       0.112000
     52 H15         10.2870    -2.2380     0.4270 ha         1 40V       0.112000
     53 H16         -8.7370     1.6760     0.3360 ha         1 40V       0.131000
     54 H17         -8.0600    -0.3570    -0.8420 ha         1 40V       0.150000
     55 H18          9.1440     1.8580    -0.1170 ha         1 40V       0.113000
     56 H19          7.9130    -2.9320     0.3490 ha         1 40V       0.113000
     57 H20         -3.6140    -2.1870    -1.7740 ha         1 40V       0.153000
     58 H21         -7.0060     3.1090     1.4040 h4         1 40V       0.027100
     59 H22          5.2930    -1.1770     1.0250 hc         1 40V       0.058700
     60 H23          5.4000    -1.9690    -0.5440 hc         1 40V       0.058700
     61 H24          1.8750     3.2830    -0.8450 hc         1 40V       0.045700
     62 H25          2.1660     2.5180     0.7100 hc         1 40V       0.045700
     63 H26          1.5920     0.0630     1.0000 hc         1 40V       0.053700
     64 H27         -0.6680     1.3180     4.1510 h1         1 40V       0.041367
     65 H28          0.7870     1.4230     3.1340 h1         1 40V       0.041367
     66 H29         -0.5660     2.5390     2.8660 h1         1 40V       0.041367
     67 H30         -0.9130    -2.5580     1.3980 h1         1 40V       0.062200
     68 H31         -2.3060    -1.5060     1.3380 h1         1 40V       0.062200
     69 H33         -2.0350     1.1560     1.0980 ho         1 40V       0.525000
@<TRIPOS>BOND
     1     1     3 ar  
     2     1    17 ar  
     3     1    23 1   
     4     2     3 ar  
     5     2    19 ar  
     6     2    29 ar  
     7     3    36 1   
     8     4     8 1   
     9     4    20 1   
    10     4    38 1   
    11     4    39 1   
    12     5    25 1   
    13     5    26 1   
    14     5    40 1   
    15     5    41 1   
    16     6    25 1   
    17     6    30 1   
    18     6    42 1   
    19     6    43 1   
    20     7    26 1   
    21     7    30 1   
    22     7    44 1   
    23     7    45 1   
    24     8    24 1   
    25     8    30 1   
    26     8    46 1   
    27     9    26 1   
    28     9    31 1   
    29     9    47 1   
    30     9    48 1   
    31    10    28 1   
    32    10    37 1   
    33    10    49 1   
    34    10    50 1   
    35    11    12 ar  
    36    11    15 ar  
    37    11    51 1   
    38    12    16 ar  
    39    12    52 1   
    40    13    14 ar  
    41    13    18 ar  
    42    13    53 1   
    43    14    19 ar  
    44    14    54 1   
    45    15    20 ar  
    46    15    55 1   
    47    16    21 ar  
    48    16    56 1   
    49    17    22 ar  
    50    17    57 1   
    51    18    29 ar  
    52    18    58 1   
    53    19    22 ar  
    54    20    21 ar  
    55    21    24 1   
    56    22    32 1   
    57    23    31 1   
    58    23    34 2   
    59    24    59 1   
    60    24    60 1   
    61    25    61 1   
    62    25    62 1   
    63    26    63 1   
    64    27    37 1   
    65    27    64 1   
    66    27    65 1   
    67    27    66 1   
    68    28    31 1   
    69    28    67 1   
    70    28    68 1   
    71    32    33 1   
    72    32    35 1   
    73    36    69 1   
@<TRIPOS>SUBSTRUCTURE
     1 40V         1 TEMP              0 ****  ****    0 ROOT
