@<TRIPOS>MOLECULE
40W
   42    44     1     0     0
SMALL
bcc


@<TRIPOS>ATOM
      1 N1          -5.6130     1.4770     0.5140 nt         1 40W      -0.670000
      2 C4           2.5210    -0.8160    -0.0500 cc         1 40W      -0.253600
      3 C5           3.8060    -0.1830    -0.2460 c          1 40W       0.615700
      4 C6           3.7530     1.2740    -0.6600 c6         1 40W      -0.174400
      5 C7           2.5590     2.0730    -0.1160 c6         1 40W      -0.033000
      6 C8           1.2500     1.3500    -0.4740 c6         1 40W      -0.012100
      7 C10          2.6780     2.2300     1.4010 c3         1 40W      -0.087600
      8 C13         -3.2650    -0.9880    -0.7570 ca         1 40W      -0.081000
      9 C15         -2.8970     0.6190     0.9880 ca         1 40W      -0.081000
     10 C17         -5.2360     0.2690     0.0710 c          1 40W       0.683700
     11 O1          -6.0280    -0.5660    -0.3440 o          1 40W      -0.597100
     12 C14         -3.7670    -0.0180     0.1060 ca         1 40W      -0.149600
     13 C12         -1.9130    -1.2860    -0.7740 ca         1 40W      -0.137000
     14 C16         -1.5480     0.3060     0.9970 ca         1 40W      -0.137000
     15 C11         -1.0540    -0.6330     0.1010 ca         1 40W       0.012800
     16 N            0.3230    -0.9500     0.0920 na         1 40W       0.014800
     17 C2           0.8280    -2.2240     0.2980 cd         1 40W      -0.170300
     18 C3           1.3470    -0.0910    -0.1250 cd         1 40W      -0.042600
     19 O            4.8690    -0.7750    -0.1330 o          1 40W      -0.542100
     20 C1           2.1870    -2.1820     0.2280 cc         1 40W      -0.068300
     21 C            3.1190    -3.3310     0.4080 c3         1 40W      -0.018800
     22 H1          -4.9550     2.2040     0.7340 hn         1 40W       0.316000
     23 H2          -6.5870     1.7300     0.5050 hn         1 40W       0.316000
     24 H3           4.6920     1.7560    -0.3760 hc         1 40W       0.067200
     25 H4           3.7190     1.2840    -1.7580 hc         1 40W       0.067200
     26 H5           0.4090     1.8400     0.0210 hc         1 40W       0.056200
     27 H6           1.0640     1.4420    -1.5510 hc         1 40W       0.056200
     28 H7           2.6750     1.2730     1.9250 hc         1 40W       0.037867
     29 H8           3.6050     2.7440     1.6620 hc         1 40W       0.037867
     30 H9           1.8490     2.8220     1.7940 hc         1 40W       0.037867
     31 H10         -3.9300    -1.5000    -1.4390 ha         1 40W       0.148500
     32 H11         -3.2610     1.3420     1.7070 ha         1 40W       0.148500
     33 H12         -1.5240    -2.0170    -1.4700 ha         1 40W       0.152000
     34 H13         -0.8880     0.7770     1.7140 ha         1 40W       0.152000
     35 H14          0.1620    -3.0480     0.5030 h4         1 40W       0.171000
     36 H15          1.7080     4.0520    -0.3960 hc         1 40W       0.037867
     37 H16          3.4640     4.0040    -0.5360 hc         1 40W       0.037867
     38 H17          2.4580     3.3850    -1.8480 hc         1 40W       0.037867
     39 H18          3.7880    -3.1780     1.2560 hc         1 40W       0.045367
     40 H19          2.5680    -4.2550     0.5790 hc         1 40W       0.045367
     41 H20          3.7500    -3.4740    -0.4690 hc         1 40W       0.045367
     42 C9           2.5480     3.4570    -0.7620 c3         1 40W      -0.087600
@<TRIPOS>BOND
     1     1    10 1   
     2     1    22 1   
     3     1    23 1   
     4     2     3 1   
     5     2    18 2   
     6     2    20 1   
     7     3     4 1   
     8     3    19 2   
     9     4     5 1   
    10     4    24 1   
    11     4    25 1   
    12     5     6 1   
    13     5     7 1   
    14     5    42 1   
    15     6    18 1   
    16     6    26 1   
    17     6    27 1   
    18     7    28 1   
    19     7    29 1   
    20     7    30 1   
    21     8    12 ar  
    22     8    13 ar  
    23     8    31 1   
    24     9    12 ar  
    25     9    14 ar  
    26     9    32 1   
    27    10    11 2   
    28    10    12 1   
    29    13    15 ar  
    30    13    33 1   
    31    14    15 ar  
    32    14    34 1   
    33    15    16 1   
    34    16    17 1   
    35    16    18 1   
    36    17    20 2   
    37    17    35 1   
    38    20    21 1   
    39    21    39 1   
    40    21    40 1   
    41    21    41 1   
    42    36    42 1   
    43    37    42 1   
    44    38    42 1   
@<TRIPOS>SUBSTRUCTURE
     1 40W         1 TEMP              0 ****  ****    0 ROOT
