@<TRIPOS>MOLECULE
40W
   42    44     1     0     0
SMALL
No Charge or Current Charge


@<TRIPOS>ATOM
      1 N1          -5.9730     0.8780     0.4290 nt         1 40W      -0.603000
      2 C4           2.3450    -0.8030     0.0740 cc         1 40W      -0.253600
      3 C5           3.6210    -0.3470    -0.5350 c          1 40W       0.615700
      4 C6           3.6040     1.1040    -1.0590 c6         1 40W      -0.174400
      5 C7           2.6860     2.0780    -0.2520 c6         1 40W      -0.033000
      6 C8           1.2400     1.4910    -0.1770 c6         1 40W      -0.012100
      7 C10          3.2630     2.2940     1.1810 c3         1 40W      -0.087600
      8 C13         -2.8480    -0.5740    -1.0270 ca         1 40W      -0.063000
      9 C15         -3.2070     0.3800     1.1810 ca         1 40W      -0.063000
     10 C17         -5.1590     0.2960    -0.4790 c          1 40W       0.616700
     11 O1          -5.6120     0.0020    -1.5730 o          1 40W      -0.597100
     12 C14         -3.7180     0.0340    -0.0930 ca         1 40W      -0.149600
     13 C12         -1.5060    -0.8300    -0.6980 ca         1 40W      -0.119000
     14 C16         -1.8630     0.1230     1.5060 ca         1 40W      -0.119000
     15 C11         -1.0070    -0.4830     0.5710 ca         1 40W       0.012800
     16 N            0.3260    -0.7230     0.9060 na         1 40W       0.116200
     17 C2           0.7010    -2.0630     0.9880 cd         1 40W      -0.203000
     18 C3           1.2760     0.0360     0.2340 cd         1 40W      -0.093300
     19 O            4.6300    -1.0360    -0.6170 o          1 40W      -0.542100
     20 C1           2.0030    -2.1040     0.5500 cc         1 40W      -0.068300
     21 C            2.9050    -3.3070     0.4900 c3         1 40W      -0.018800
     22 H1          -5.6240     1.1300     1.3400 hn         1 40W       0.316000
     23 H2          -6.9340     1.0570     0.1820 hn         1 40W       0.316000
     24 H3           4.6330     1.4710    -1.1700 hc         1 40W       0.067200
     25 H4           3.1780     1.0360    -2.0690 hc         1 40W       0.067200
     26 H5           0.6250     2.0770     0.5200 hc         1 40W       0.056200
     27 H6           0.7510     1.5740    -1.1570 hc         1 40W       0.056200
     28 H7           3.3080     1.3590     1.7510 hc         1 40W       0.037867
     29 H8           4.2800     2.7030     1.1450 hc         1 40W       0.037867
     30 H9           2.6480     2.9960     1.7580 hc         1 40W       0.037867
     31 H10         -3.2100    -0.8520    -2.0150 ha         1 40W       0.130500
     32 H11         -3.8370     0.8510     1.9330 ha         1 40W       0.130500
     33 H12         -0.8510    -1.2960    -1.4310 ha         1 40W       0.134000
     34 H13         -1.4850     0.3970     2.4890 ha         1 40W       0.134000
     35 H14          0.0430    -2.8440     1.3500 h4         1 40W       0.153000
     36 H15          2.0120     4.1760    -0.4050 hc         1 40W       0.037867
     37 H16          3.6550     3.9130    -1.0100 hc         1 40W       0.037867
     38 H17          2.2650     3.3970    -1.9720 hc         1 40W       0.037867
     39 H18          3.8080    -3.1500     1.0910 hc         1 40W       0.045367
     40 H19          2.3970    -4.1980     0.8760 hc         1 40W       0.045367
     41 H20          3.2110    -3.5170    -0.5410 hc         1 40W       0.045367
     42 C9           2.6530     3.4700    -0.9490 c3         1 40W      -0.087600
@<TRIPOS>BOND
     1     1    10 1   
     2     1    22 1   
     3     1    23 1   
     4     2     3 1   
     5     2    18 2   
     6     2    20 1   
     7     3     4 1   
     8     3    19 2   
     9     4     5 1   
    10     4    24 1   
    11     4    25 1   
    12     5     6 1   
    13     5     7 1   
    14     5    42 1   
    15     6    18 1   
    16     6    26 1   
    17     6    27 1   
    18     7    28 1   
    19     7    29 1   
    20     7    30 1   
    21     8    12 ar  
    22     8    13 ar  
    23     8    31 1   
    24     9    12 ar  
    25     9    14 ar  
    26     9    32 1   
    27    10    11 2   
    28    10    12 1   
    29    13    15 ar  
    30    13    33 1   
    31    14    15 ar  
    32    14    34 1   
    33    15    16 1   
    34    16    17 1   
    35    16    18 1   
    36    17    20 2   
    37    17    35 1   
    38    20    21 1   
    39    21    39 1   
    40    21    40 1   
    41    21    41 1   
    42    36    42 1   
    43    37    42 1   
    44    38    42 1   
@<TRIPOS>SUBSTRUCTURE
     1 40W         1 TEMP              0 ****  ****    0 ROOT
