@<TRIPOS>MOLECULE
40X
   56    59     1     0     0
SMALL
bcc


@<TRIPOS>ATOM
      1 N1           4.7870     1.5260    -1.5660 nt         1 40X      -0.670000
      2 C4          -0.0680    -2.5120     1.1950 c3         1 40X      -0.040100
      3 C5          -1.2190    -1.6290     0.8760 cc         1 40X      -0.119600
      4 C6          -2.5690    -1.8160     0.9260 cd         1 40X      -0.050300
      5 C7          -3.1600    -0.5740     0.5160 cd         1 40X      -0.252600
      6 C8          -2.1470     0.3150     0.2230 cc         1 40X      -0.028600
      7 C10          0.6860     1.4260     0.7470 ca         1 40X      -0.129000
      8 C13          2.5370    -0.1200    -0.6100 ca         1 40X      -0.112000
      9 C15          4.3360     1.5840    -0.3080 c          1 40X       0.688700
     10 C17         -3.7040     1.8350    -0.9690 c6         1 40X      -0.032000
     11 C20         -3.7160     1.1130    -2.3180 c3         1 40X      -0.088100
     12 C21         -3.9930     3.3160    -1.1960 c3         1 40X      -0.088100
     13 C22         -3.2880    -3.0590     1.3270 c3         1 40X      -0.020800
     14 C19         -4.5460    -0.1970     0.3590 c          1 40X       0.615700
     15 C18         -4.7770     1.2460    -0.0400 c6         1 40X      -0.174400
     16 C16         -2.3250     1.6950    -0.2960 c6         1 40X      -0.014100
     17 N           -0.9740    -0.3250     0.4500 na         1 40X       0.028800
     18 C9           0.3220     0.1800     0.2610 ca         1 40X      -0.008200
     19 C14          1.2540    -0.6060    -0.4220 ca         1 40X       0.110100
     20 C12          2.9150     1.1330    -0.1370 ca         1 40X      -0.137600
     21 O1           5.0060     1.9400     0.6460 o          1 40X      -0.575100
     22 C11          1.9730     1.8960     0.5450 ca         1 40X       0.065400
     23 CL           2.3600     3.4750     1.1310 cl         1 40X      -0.069400
     24 O            0.8860    -1.7950    -0.9480 os         1 40X      -0.331900
     25 C3           0.7450    -2.9060    -0.0420 c3         1 40X       0.156100
     26 C2           2.0950    -3.4900     0.3360 c3         1 40X      -0.107400
     27 C1           2.8830    -4.0580    -0.8390 c3         1 40X      -0.070400
     28 C            4.2370    -4.6040    -0.4100 c3         1 40X      -0.091100
     29 H1           4.1840     1.3050    -2.3400 hn         1 40X       0.319000
     30 H2           5.7390     1.7790    -1.7760 hn         1 40X       0.319000
     31 H3           0.5870    -2.0290     1.9300 hc         1 40X       0.066200
     32 H4          -0.4240    -3.4270     1.6710 hc         1 40X       0.066200
     33 H5          -0.0260     2.0250     1.2970 ha         1 40X       0.163000
     34 H6           3.2530    -0.7340    -1.1420 ha         1 40X       0.155000
     35 H7          -3.4720     0.0530    -2.2280 hc         1 40X       0.039033
     36 H8          -4.7000     1.1870    -2.7850 hc         1 40X       0.039033
     37 H9          -2.9930     1.5600    -3.0020 hc         1 40X       0.039033
     38 H10         -3.2520     3.7610    -1.8630 hc         1 40X       0.039033
     39 H11         -4.9750     3.4590    -1.6490 hc         1 40X       0.039033
     40 H12         -3.9740     3.8750    -0.2580 hc         1 40X       0.039033
     41 H13         -3.9660    -2.8800     2.1610 hc         1 40X       0.045700
     42 H14         -3.8900    -3.4530     0.5070 hc         1 40X       0.045700
     43 H15         -2.5910    -3.8410     1.6260 hc         1 40X       0.045700
     44 H16         -4.8070     1.8310     0.8890 hc         1 40X       0.067700
     45 H17         -5.7660     1.3350    -0.4940 hc         1 40X       0.067700
     46 H18         -2.2560     2.4170     0.5270 hc         1 40X       0.058700
     47 H19         -1.5340     1.9560    -1.0040 hc         1 40X       0.058700
     48 H20          0.1760    -3.6350    -0.6230 h1         1 40X       0.086700
     49 H21          2.6910    -2.7310     0.8580 hc         1 40X       0.050200
     50 H22          1.9170    -4.2820     1.0710 hc         1 40X       0.050200
     51 H23          2.2980    -4.8510    -1.3130 hc         1 40X       0.043200
     52 H24          3.0260    -3.2880    -1.6020 hc         1 40X       0.043200
     53 H25          4.8520    -3.8220     0.0390 hc         1 40X       0.034033
     54 H26          4.1260    -5.3990     0.3290 hc         1 40X       0.034033
     55 H27          4.7890    -5.0130    -1.2560 hc         1 40X       0.034033
     56 O2          -5.4770    -0.9610     0.5630 o          1 40X      -0.541100
@<TRIPOS>BOND
     1     1     9 1   
     2     1    29 1   
     3     1    30 1   
     4     2     3 1   
     5     2    25 1   
     6     2    31 1   
     7     2    32 1   
     8     3     4 2   
     9     3    17 1   
    10     4     5 1   
    11     4    13 1   
    12     5     6 2   
    13     5    14 1   
    14     6    16 1   
    15     6    17 1   
    16     7    18 ar  
    17     7    22 ar  
    18     7    33 1   
    19     8    19 ar  
    20     8    20 ar  
    21     8    34 1   
    22     9    20 1   
    23     9    21 2   
    24    10    11 1   
    25    10    12 1   
    26    10    15 1   
    27    10    16 1   
    28    11    35 1   
    29    11    36 1   
    30    11    37 1   
    31    12    38 1   
    32    12    39 1   
    33    12    40 1   
    34    13    41 1   
    35    13    42 1   
    36    13    43 1   
    37    14    15 1   
    38    14    56 2   
    39    15    44 1   
    40    15    45 1   
    41    16    46 1   
    42    16    47 1   
    43    17    18 1   
    44    18    19 ar  
    45    19    24 1   
    46    20    22 ar  
    47    22    23 1   
    48    24    25 1   
    49    25    26 1   
    50    25    48 1   
    51    26    27 1   
    52    26    49 1   
    53    26    50 1   
    54    27    28 1   
    55    27    51 1   
    56    27    52 1   
    57    28    53 1   
    58    28    54 1   
    59    28    55 1   
@<TRIPOS>SUBSTRUCTURE
     1 40X         1 TEMP              0 ****  ****    0 ROOT
