@<TRIPOS>MOLECULE
40X
   56    59     1     0     0
SMALL
No Charge or Current Charge


@<TRIPOS>ATOM
      1 N1           5.0040     1.1460    -1.4500 nt         1 40X      -0.603000
      2 C4          -0.0940    -2.6170     1.2180 c3         1 40X      -0.040100
      3 C5          -1.2140    -1.6480     0.9280 cc         1 40X      -0.170300
      4 C6          -2.5850    -1.7900     0.9570 cd         1 40X      -0.050300
      5 C7          -3.1650    -0.5450     0.5630 cd         1 40X      -0.252600
      6 C8          -2.1690     0.3570     0.2890 cc         1 40X      -0.079300
      7 C10          0.6700     1.4350     0.8120 ca         1 40X      -0.111000
      8 C13          2.5230    -0.0690    -0.6500 ca         1 40X      -0.094000
      9 C15          4.3100     1.7240    -0.4440 c          1 40X       0.621700
     10 C17         -3.7600     1.8810    -0.9510 c6         1 40X      -0.032000
     11 C20         -3.7510     1.1490    -2.3290 c3         1 40X      -0.088100
     12 C21         -4.0740     3.3810    -1.2320 c3         1 40X      -0.088100
     13 C22         -3.3600    -3.0360     1.3120 c3         1 40X      -0.020800
     14 C19         -4.6000    -0.1850     0.3870 c          1 40X       0.615700
     15 C18         -4.8610     1.2760    -0.0250 c6         1 40X      -0.174400
     16 C16         -2.3700     1.7540    -0.2530 c6         1 40X      -0.014100
     17 N           -0.9900    -0.3330     0.5420 na         1 40X       0.130200
     18 C9           0.2940     0.1730     0.3160 ca         1 40X      -0.008200
     19 C14          1.2440    -0.5880    -0.3950 ca         1 40X       0.110100
     20 C12          2.9100     1.2080    -0.1670 ca         1 40X      -0.137600
     21 O1           4.8640     2.5910     0.2100 o          1 40X      -0.575100
     22 C11          1.9560     1.9530     0.5800 ca         1 40X       0.157000
     23 Cl           2.2710     3.5690     1.2170 cl         1 40X      -0.161000
     24 O            0.9200    -1.8300    -0.8980 os         1 40X      -0.355100
     25 C3           0.7520    -2.9820    -0.0330 c3         1 40X       0.179300
     26 C2           2.1550    -3.5310     0.3310 c3         1 40X      -0.107400
     27 C1           2.9740    -4.0210    -0.8860 c3         1 40X      -0.070400
     28 C            4.3580    -4.5720    -0.4960 c3         1 40X      -0.091100
     29 H1           4.5740     0.4390    -2.0260 hn         1 40X       0.319000
     30 H2           5.9420     1.4630    -1.6430 hn         1 40X       0.319000
     31 H3           0.5630    -2.1770     1.9790 hc         1 40X       0.066200
     32 H4          -0.4770    -3.5410     1.6640 hc         1 40X       0.066200
     33 H5          -0.0380     2.0250     1.3870 ha         1 40X       0.145000
     34 H6           3.2160    -0.6910    -1.2080 ha         1 40X       0.137000
     35 H7          -3.5140     0.0830    -2.2270 hc         1 40X       0.039033
     36 H8          -4.7260     1.2190    -2.8260 hc         1 40X       0.039033
     37 H9          -3.0040     1.5810    -3.0070 hc         1 40X       0.039033
     38 H10         -3.3120     3.8360    -1.8750 hc         1 40X       0.039033
     39 H11         -5.0440     3.5010    -1.7310 hc         1 40X       0.039033
     40 H12         -4.1100     3.9630    -0.3030 hc         1 40X       0.039033
     41 H13         -4.0460    -2.8440     2.1450 hc         1 40X       0.045700
     42 H14         -3.9560    -3.3790     0.4580 hc         1 40X       0.045700
     43 H15         -2.7070    -3.8630     1.6090 hc         1 40X       0.045700
     44 H16         -4.8330     1.8490     0.9110 hc         1 40X       0.067700
     45 H17         -5.8750     1.3720    -0.4360 hc         1 40X       0.067700
     46 H18         -2.3070     2.4760     0.5720 hc         1 40X       0.058700
     47 H19         -1.5710     2.0240    -0.9570 hc         1 40X       0.058700
     48 H20          0.2120    -3.7630    -0.5850 h1         1 40X       0.086700
     49 H21          2.7220    -2.7590     0.8650 hc         1 40X       0.050200
     50 H22          2.0310    -4.3670     1.0310 hc         1 40X       0.050200
     51 H23          2.4120    -4.8050    -1.4100 hc         1 40X       0.043200
     52 H24          3.1100    -3.1980    -1.5980 hc         1 40X       0.043200
     53 H25          4.9580    -3.7980    -0.0010 hc         1 40X       0.034033
     54 H26          4.2590    -5.4240     0.1870 hc         1 40X       0.034033
     55 H27          4.9010    -4.9080    -1.3880 hc         1 40X       0.034033
     56 O2          -5.5220    -0.9780     0.5290 o          1 40X      -0.541100
@<TRIPOS>BOND
     1     1     9 1   
     2     1    29 1   
     3     1    30 1   
     4     2     3 1   
     5     2    25 1   
     6     2    31 1   
     7     2    32 1   
     8     3     4 2   
     9     3    17 1   
    10     4     5 1   
    11     4    13 1   
    12     5     6 2   
    13     5    14 1   
    14     6    16 1   
    15     6    17 1   
    16     7    18 ar  
    17     7    22 ar  
    18     7    33 1   
    19     8    19 ar  
    20     8    20 ar  
    21     8    34 1   
    22     9    20 1   
    23     9    21 2   
    24    10    11 1   
    25    10    12 1   
    26    10    15 1   
    27    10    16 1   
    28    11    35 1   
    29    11    36 1   
    30    11    37 1   
    31    12    38 1   
    32    12    39 1   
    33    12    40 1   
    34    13    41 1   
    35    13    42 1   
    36    13    43 1   
    37    14    15 1   
    38    14    56 2   
    39    15    44 1   
    40    15    45 1   
    41    16    46 1   
    42    16    47 1   
    43    17    18 1   
    44    18    19 ar  
    45    19    24 1   
    46    20    22 ar  
    47    22    23 1   
    48    24    25 1   
    49    25    26 1   
    50    25    48 1   
    51    26    27 1   
    52    26    49 1   
    53    26    50 1   
    54    27    28 1   
    55    27    51 1   
    56    27    52 1   
    57    28    53 1   
    58    28    54 1   
    59    28    55 1   
@<TRIPOS>SUBSTRUCTURE
     1 40X         1 TEMP              0 ****  ****    0 ROOT
