@<TRIPOS>MOLECULE
40Y
   47    50     1     0     0
SMALL
No Charge or Current Charge


@<TRIPOS>ATOM
      1 N1          -5.4720     2.1630    -0.2890 nt         1 40Y      -0.603000
      2 C4           2.5560    -0.5680    -0.4810 cc         1 40Y      -0.253600
      3 C5           3.9180    -0.0490    -0.1940 c          1 40Y       0.615700
      4 C6           4.0240     1.4870    -0.1480 c6         1 40Y      -0.174400
      5 C7           2.7610     2.1950     0.4370 c6         1 40Y      -0.033000
      6 C8           1.5000     1.7650    -0.3760 c6         1 40Y      -0.012100
      7 C10          2.5890     1.8280     1.9440 c3         1 40Y      -0.088100
      8 C13         -2.7880     1.2920    -0.9980 ca         1 40Y      -0.086000
      9 C15         -2.9350    -0.3730     0.7640 ca         1 40Y      -0.064000
     10 C17         -0.9720    -3.1830     0.5670 c3         1 40Y       0.167600
     11 C19         -4.9260     1.1440     0.4100 c          1 40Y       0.617700
     12 C14         -3.5280     0.6900     0.0470 ca         1 40Y      -0.141600
     13 C12         -1.4900     0.8500    -1.3020 ca         1 40Y      -0.117000
     14 C16         -1.6430    -0.8260     0.4510 ca         1 40Y       0.103100
     15 O1          -1.1290    -1.8800     1.1750 os         1 40Y      -0.353100
     16 C18         -0.2300    -3.0610    -0.7860 c3         1 40Y      -0.046100
     17 C2           0.7710    -1.9330    -0.7800 cd         1 40Y      -0.169300
     18 C11         -0.8930    -0.1980    -0.5740 ca         1 40Y      -0.011200
     19 N            0.4170    -0.5900    -0.8950 na         1 40Y       0.130200
     20 C3           1.4720     0.2640    -0.5870 cd         1 40Y      -0.081300
     21 O            4.8970    -0.7550     0.0180 o          1 40Y      -0.541100
     22 C1           2.1360    -1.9310    -0.5950 cc         1 40Y      -0.053300
     23 C            3.0520    -3.1170    -0.4300 c3         1 40Y      -0.019800
     24 H1          -6.4030     2.4740    -0.0560 hn         1 40Y       0.316500
     25 H2          -4.9550     2.6050    -1.0320 hn         1 40Y       0.316500
     26 H3           4.9570     1.7820     0.3510 hc         1 40Y       0.067200
     27 H4           4.1000     1.8020    -1.1970 hc         1 40Y       0.067200
     28 H5           0.5910     2.1080     0.1370 hc         1 40Y       0.056200
     29 H6           1.5010     2.2620    -1.3560 hc         1 40Y       0.056200
     30 H7           2.4300     0.7530     2.0890 hc         1 40Y       0.039033
     31 H8           3.4740     2.1090     2.5280 hc         1 40Y       0.039033
     32 H9           1.7270     2.3430     2.3850 hc         1 40Y       0.039033
     33 H10         -3.2040     2.1090    -1.5830 ha         1 40Y       0.117000
     34 H11         -3.4800    -0.8640     1.5660 ha         1 40Y       0.154000
     35 H12         -0.3900    -3.8290     1.2360 h1         1 40Y       0.059200
     36 H13         -1.9470    -3.6610     0.4060 h1         1 40Y       0.059200
     37 H14         -0.9390     1.3310    -2.1080 ha         1 40Y       0.129000
     38 H15          0.2460    -4.0190    -1.0230 hc         1 40Y       0.065200
     39 H16         -0.9710    -2.8930    -1.5770 hc         1 40Y       0.065200
     40 H17          2.0620     4.2650     0.7570 hc         1 40Y       0.039033
     41 H18          3.8130     4.0730     0.9320 hc         1 40Y       0.039033
     42 H19          3.0790     4.0750    -0.6770 hc         1 40Y       0.039033
     43 H20          3.4800    -3.1410     0.5790 hc         1 40Y       0.045700
     44 H21          2.5240    -4.0630    -0.5880 hc         1 40Y       0.045700
     45 H22          3.8770    -3.0760    -1.1500 hc         1 40Y       0.045700
     46 C9           2.9390     3.7400     0.3580 c3         1 40Y      -0.088100
     47 O2          -5.5750     0.6280     1.3050 o          1 40Y      -0.598100
@<TRIPOS>BOND
     1     1    11 1   
     2     1    24 1   
     3     1    25 1   
     4     2     3 1   
     5     2    20 2   
     6     2    22 1   
     7     3     4 1   
     8     3    21 2   
     9     4     5 1   
    10     4    26 1   
    11     4    27 1   
    12     5     6 1   
    13     5     7 1   
    14     5    46 1   
    15     6    20 1   
    16     6    28 1   
    17     6    29 1   
    18     7    30 1   
    19     7    31 1   
    20     7    32 1   
    21     8    12 ar  
    22     8    13 ar  
    23     8    33 1   
    24     9    12 ar  
    25     9    14 ar  
    26     9    34 1   
    27    10    15 1   
    28    10    16 1   
    29    10    35 1   
    30    10    36 1   
    31    11    12 1   
    32    11    47 2   
    33    13    18 ar  
    34    13    37 1   
    35    14    15 1   
    36    14    18 ar  
    37    16    17 1   
    38    16    38 1   
    39    16    39 1   
    40    17    19 1   
    41    17    22 2   
    42    18    19 1   
    43    19    20 1   
    44    22    23 1   
    45    23    43 1   
    46    23    44 1   
    47    23    45 1   
    48    40    46 1   
    49    41    46 1   
    50    42    46 1   
@<TRIPOS>SUBSTRUCTURE
     1 40Y         1 TEMP              0 ****  ****    0 ROOT
