@<TRIPOS>MOLECULE
40Y
   47    50     1     0     0
SMALL
abcg2


@<TRIPOS>ATOM
      1 N1          -5.4590     2.1440    -0.4210 nt         1 40Y      -0.603000
      2 C4           2.5950    -0.5500    -0.3970 cc         1 40Y      -0.253600
      3 C5           3.9300     0.0040    -0.3480 c          1 40Y       0.615700
      4 C6           3.9920     1.5180    -0.3100 c6         1 40Y      -0.174400
      5 C7           2.8440     2.1910     0.4560 c6         1 40Y      -0.033000
      6 C8           1.5000     1.7390    -0.1410 c6         1 40Y      -0.012100
      7 C10          2.9140     1.8190     1.9400 c3         1 40Y      -0.088100
      8 C13         -2.7710     1.2660    -0.9980 ca         1 40Y      -0.086000
      9 C15         -3.1640    -0.4950     0.5870 ca         1 40Y      -0.064000
     10 C17         -1.0340    -3.0770     0.7460 c3         1 40Y       0.167600
     11 C19         -5.1010     0.9050    -0.0560 c          1 40Y       0.617700
     12 C14         -3.6430     0.5770    -0.1610 ca         1 40Y      -0.141600
     13 C12         -1.4390     0.8970    -1.0780 ca         1 40Y      -0.117000
     14 C16         -1.8270    -0.8470     0.5400 ca         1 40Y       0.103100
     15 O1          -1.3500    -1.8210     1.3510 os         1 40Y      -0.353100
     16 C18         -0.2560    -2.9240    -0.5570 c3         1 40Y      -0.046100
     17 C2           0.7890    -1.8700    -0.4720 cd         1 40Y      -0.169300
     18 C11         -0.9550    -0.1470    -0.3030 ca         1 40Y      -0.011200
     19 N            0.3930    -0.5390    -0.3590 na         1 40Y       0.130200
     20 C3           1.4850     0.2630    -0.3090 cd         1 40Y      -0.081300
     21 O            4.9430    -0.6770    -0.3730 o          1 40Y      -0.541100
     22 C1           2.1520    -1.9120    -0.4960 cc         1 40Y      -0.053300
     23 C            3.0120    -3.1240    -0.6130 c3         1 40Y      -0.019800
     24 H1          -6.4260     2.4190    -0.3640 hn         1 40Y       0.316500
     25 H2          -4.7920     2.8660    -0.6310 hn         1 40Y       0.316500
     26 H3           4.9550     1.8260     0.1030 hc         1 40Y       0.067200
     27 H4           3.9760     1.8570    -1.3540 hc         1 40Y       0.067200
     28 H5           0.6760     2.0750     0.4940 hc         1 40Y       0.056200
     29 H6           1.3530     2.2250    -1.1130 hc         1 40Y       0.056200
     30 H7           2.7930     0.7480     2.1060 hc         1 40Y       0.039033
     31 H8           3.8760     2.1130     2.3650 hc         1 40Y       0.039033
     32 H9           2.1310     2.3310     2.5020 hc         1 40Y       0.039033
     33 H10         -3.1170     2.0760    -1.6260 ha         1 40Y       0.117000
     34 H11         -3.8280    -1.0440     1.2420 ha         1 40Y       0.154000
     35 H12         -0.4350    -3.6040     1.4870 h1         1 40Y       0.059200
     36 H13         -1.9500    -3.6500     0.5690 h1         1 40Y       0.059200
     37 H14         -0.7790     1.4150    -1.7600 ha         1 40Y       0.129000
     38 H15          0.1970    -3.8860    -0.7950 hc         1 40Y       0.065200
     39 H16         -0.9450    -2.7070    -1.3800 hc         1 40Y       0.065200
     40 H17          2.1470     4.2120     0.8350 hc         1 40Y       0.039033
     41 H18          3.9020     4.0630     0.7500 hc         1 40Y       0.039033
     42 H19          2.9410     4.0170    -0.7290 hc         1 40Y       0.039033
     43 H20          3.6800    -3.2230     0.2430 hc         1 40Y       0.045700
     44 H21          2.4140    -4.0330    -0.6710 hc         1 40Y       0.045700
     45 H22          3.6410    -3.0840    -1.5020 hc         1 40Y       0.045700
     46 C9           2.9650     3.7060     0.3180 c3         1 40Y      -0.088100
     47 O2          -5.9030     0.0710     0.3420 o          1 40Y      -0.598100
@<TRIPOS>BOND
     1     1    11 1   
     2     1    24 1   
     3     1    25 1   
     4     2     3 1   
     5     2    20 2   
     6     2    22 1   
     7     3     4 1   
     8     3    21 2   
     9     4     5 1   
    10     4    26 1   
    11     4    27 1   
    12     5     6 1   
    13     5     7 1   
    14     5    46 1   
    15     6    20 1   
    16     6    28 1   
    17     6    29 1   
    18     7    30 1   
    19     7    31 1   
    20     7    32 1   
    21     8    12 ar  
    22     8    13 ar  
    23     8    33 1   
    24     9    12 ar  
    25     9    14 ar  
    26     9    34 1   
    27    10    15 1   
    28    10    16 1   
    29    10    35 1   
    30    10    36 1   
    31    11    12 1   
    32    11    47 2   
    33    13    18 ar  
    34    13    37 1   
    35    14    15 1   
    36    14    18 ar  
    37    16    17 1   
    38    16    38 1   
    39    16    39 1   
    40    17    19 1   
    41    17    22 2   
    42    18    19 1   
    43    19    20 1   
    44    22    23 1   
    45    23    43 1   
    46    23    44 1   
    47    23    45 1   
    48    40    46 1   
    49    41    46 1   
    50    42    46 1   
@<TRIPOS>SUBSTRUCTURE
     1 40Y         1 TEMP              0 ****  ****    0 ROOT
