@<TRIPOS>MOLECULE
40Z
   58    62     1     0     0
SMALL
bcc


@<TRIPOS>ATOM
      1 N1           0.2010     2.3450    -1.0310 nh         1 40Z      -0.661000
      2 C4           2.6230    -1.4500    -0.9590 cc         1 40Z      -0.256600
      3 C5           3.7090    -2.2700    -0.4670 c          1 40Z       0.614700
      4 C6           3.5390    -2.7880     0.9460 c6         1 40Z      -0.174400
      5 C7           2.0920    -3.0780     1.3670 c6         1 40Z      -0.033000
      6 C8           1.2290    -1.8270     1.1350 c6         1 40Z      -0.015100
      7 C10          2.0610    -3.4260     2.8530 c3         1 40Z      -0.088600
      8 C13         -2.8350    -0.2700     0.2260 ca         1 40Z       0.072400
      9 C15         -2.0540     1.9330    -0.2560 ca         1 40Z      -0.071000
     10 C17          0.5030     2.2920    -2.4560 c3         1 40Z       0.202800
     11 C20          0.9100     2.7500     1.2560 cc         1 40Z       0.223000
     12 C21          1.0990     2.0840     2.4210 cd         1 40Z      -0.257300
     13 C22          0.4200     2.8330     3.4300 cd         1 40Z      -0.269300
     14 CL          -4.0780    -1.3800     0.6800 cl         1 40Z      -0.072400
     15 C12         -1.6110    -0.7920    -0.1570 ca         1 40Z      -0.135000
     16 C14         -3.0790     1.0990     0.1770 ca         1 40Z      -0.146600
     17 N2          -4.9320     2.5440    -0.2430 nt         1 40Z      -0.670000
     18 O2          -4.8510     1.4300     1.7240 o          1 40Z      -0.577100
     19 C16         -0.8050     1.4450    -0.6100 ca         1 40Z       0.110600
     20 C19          1.3470     2.4700    -0.1340 c3         1 40Z       0.172500
     21 O1           0.1630     3.8540     1.4780 os         1 40Z      -0.315800
     22 C23         -0.1310     3.8920     2.7950 cc         1 40Z       0.235600
     23 C18          0.6080     0.8720    -3.0410 c3         1 40Z      -0.043100
     24 C2           1.2920    -0.0730    -2.1220 cd         1 40Z      -0.127600
     25 C11         -0.5920     0.0650    -0.5480 ca         1 40Z      -0.005200
     26 N            0.6620    -0.4460    -0.9340 na         1 40Z       0.015800
     27 C3           1.4700    -1.2740    -0.2240 cd         1 40Z      -0.029600
     28 C9           1.5330    -4.2580     0.5670 c3         1 40Z      -0.088600
     29 O            4.7210    -2.4970    -1.1110 o          1 40Z      -0.541100
     30 C1           2.5070    -0.6910    -2.1710 cc         1 40Z      -0.057300
     31 C            3.5230    -0.5860    -3.2570 c3         1 40Z      -0.020800
     32 H1           4.1590    -3.6780     1.0740 hc         1 40Z       0.068200
     33 H2           3.9570    -2.0180     1.6080 hc         1 40Z       0.068200
     34 H3           0.1800    -2.0720     1.3110 hc         1 40Z       0.060200
     35 H4           1.4830    -1.0650     1.8820 hc         1 40Z       0.060200
     36 H5           1.0400    -3.6300     3.1830 hc         1 40Z       0.039200
     37 H6           2.6610    -4.3140     3.0620 hc         1 40Z       0.039200
     38 H7           2.4530    -2.6090     3.4620 hc         1 40Z       0.039200
     39 H8          -2.2090     3.0040    -0.2950 ha         1 40Z       0.160000
     40 H9          -0.2640     2.8390    -3.0110 h1         1 40Z       0.055700
     41 H10          1.4430     2.8230    -2.6100 h1         1 40Z       0.055700
     42 H11          1.6570     1.1700     2.5450 ha         1 40Z       0.156000
     43 H12          0.3510     2.6080     4.4820 ha         1 40Z       0.162000
     44 H13         -1.4620    -1.8630    -0.1740 ha         1 40Z       0.163000
     45 H14         -4.5630     2.6710    -1.1700 hn         1 40Z       0.318000
     46 H15         -5.7960     3.0120    -0.0190 hn         1 40Z       0.318000
     47 H16          2.0040     1.5910    -0.1020 h1         1 40Z       0.061200
     48 H17          1.9580     3.2940    -0.5130 h1         1 40Z       0.061200
     49 H18         -0.7300     4.7220     3.1330 h4         1 40Z       0.053100
     50 H19         -0.3930     0.4990    -3.2780 hc         1 40Z       0.062200
     51 H20          1.1410     0.9180    -3.9910 hc         1 40Z       0.062200
     52 H21          1.5130    -4.0650    -0.5070 hc         1 40Z       0.039200
     53 H22          2.1360    -5.1530     0.7300 hc         1 40Z       0.039200
     54 H23          0.5120    -4.4840     0.8800 hc         1 40Z       0.039200
     55 H24          3.7670    -1.5640    -3.6740 hc         1 40Z       0.046033
     56 H25          3.1710     0.0430    -4.0740 hc         1 40Z       0.046033
     57 H26          4.4570    -0.1560    -2.8920 hc         1 40Z       0.046033
     58 C24         -4.3780     1.6950     0.6310 c          1 40Z       0.690700
@<TRIPOS>BOND
     1     1    10 1   
     2     1    19 1   
     3     1    20 1   
     4     2     3 1   
     5     2    27 2   
     6     2    30 1   
     7     3     4 1   
     8     3    29 2   
     9     4     5 1   
    10     4    32 1   
    11     4    33 1   
    12     5     6 1   
    13     5     7 1   
    14     5    28 1   
    15     6    27 1   
    16     6    34 1   
    17     6    35 1   
    18     7    36 1   
    19     7    37 1   
    20     7    38 1   
    21     8    14 1   
    22     8    15 ar  
    23     8    16 ar  
    24     9    16 ar  
    25     9    19 ar  
    26     9    39 1   
    27    10    23 1   
    28    10    40 1   
    29    10    41 1   
    30    11    12 2   
    31    11    20 1   
    32    11    21 1   
    33    12    13 1   
    34    12    42 1   
    35    13    22 2   
    36    13    43 1   
    37    15    25 ar  
    38    15    44 1   
    39    16    58 1   
    40    17    45 1   
    41    17    46 1   
    42    17    58 1   
    43    18    58 2   
    44    19    25 ar  
    45    20    47 1   
    46    20    48 1   
    47    21    22 1   
    48    22    49 1   
    49    23    24 1   
    50    23    50 1   
    51    23    51 1   
    52    24    26 1   
    53    24    30 2   
    54    25    26 1   
    55    26    27 1   
    56    28    52 1   
    57    28    53 1   
    58    28    54 1   
    59    30    31 1   
    60    31    55 1   
    61    31    56 1   
    62    31    57 1   
@<TRIPOS>SUBSTRUCTURE
     1 40Z         1 TEMP              0 ****  ****    0 ROOT
