@<TRIPOS>MOLECULE
40Z
   58    62     1     0     0
SMALL
No Charge or Current Charge


@<TRIPOS>ATOM
      1 N1          -0.1420     2.3320    -1.1900 nh         1 40Z      -0.799400
      2 C4           2.3270    -1.2250    -0.4600 cc         1 40Z      -0.256600
      3 C5           3.4410    -1.8300     0.3140 c          1 40Z       0.614700
      4 C6           3.0670    -2.3070     1.7320 c6         1 40Z      -0.174400
      5 C7           1.5970    -2.8070     1.8850 c6         1 40Z      -0.033000
      6 C8           0.6120    -1.7080     1.3780 c6         1 40Z      -0.015100
      7 C10          1.3030    -3.1260     3.3810 c3         1 40Z      -0.088600
      8 C13         -3.2860    -0.3310    -0.1660 ca         1 40Z       0.164000
      9 C15         -2.4290     1.9100    -0.5350 ca         1 40Z      -0.053000
     10 C17          0.5300     2.2630    -2.5160 c3         1 40Z       0.202800
     11 C20          1.5460     2.4490     0.6850 cc         1 40Z       0.113300
     12 C21          2.8500     2.1410     0.4090 cd         1 40Z      -0.174000
     13 C22          3.3670     1.4810     1.5420 cd         1 40Z      -0.186000
     14 Cl          -4.5530    -1.5160     0.1630 cl         1 40Z      -0.164000
     15 C12         -2.0110    -0.8430    -0.4500 ca         1 40Z      -0.117000
     16 C14         -3.5160     1.0670    -0.1950 ca         1 40Z      -0.146600
     17 N2          -5.1140     2.9280    -0.3220 nt         1 40Z      -0.603000
     18 O2          -5.7280     1.1220     0.7850 o          1 40Z      -0.577100
     19 C16         -1.1490     1.4030    -0.8240 ca         1 40Z       0.249000
     20 C19          0.5000     3.1610    -0.1410 c3         1 40Z       0.172500
     21 O1           1.2260     2.0070     1.9510 os         1 40Z      -0.227000
     22 C23          2.3580     1.4130     2.4640 cc         1 40Z       0.125900
     23 C18          0.6490     0.8390    -3.0990 c3         1 40Z      -0.043100
     24 C2           1.1300    -0.1110    -2.0340 cd         1 40Z      -0.178300
     25 C11         -0.9260     0.0020    -0.7500 ca         1 40Z      -0.005200
     26 N            0.3240    -0.5870    -1.0040 na         1 40Z       0.117200
     27 C3           1.0470    -1.1790     0.0270 cd         1 40Z      -0.080300
     28 C9           1.3960    -4.1310     1.0840 c3         1 40Z      -0.088600
     29 O            4.5800    -1.9710    -0.1130 o          1 40Z      -0.541100
     30 C1           2.3910    -0.5780    -1.7350 cc         1 40Z      -0.057300
     31 C            3.6670    -0.3560    -2.5070 c3         1 40Z      -0.020800
     32 H1           3.8100    -3.0330     2.0870 hc         1 40Z       0.068200
     33 H2           3.1650    -1.4180     2.3670 hc         1 40Z       0.068200
     34 H3          -0.4060    -2.1160     1.3440 hc         1 40Z       0.060200
     35 H4           0.5770    -0.8770     2.0940 hc         1 40Z       0.060200
     36 H5           0.2750    -3.4810     3.5220 hc         1 40Z       0.039200
     37 H6           1.9760    -3.9020     3.7660 hc         1 40Z       0.039200
     38 H7           1.4330    -2.2380     4.0130 hc         1 40Z       0.039200
     39 H8          -2.5550     2.9880    -0.5740 ha         1 40Z       0.142000
     40 H9          -0.0030     2.8970    -3.2380 h1         1 40Z       0.055700
     41 H10          1.5500     2.6640    -2.4290 h1         1 40Z       0.055700
     42 H11          3.3770     2.3630    -0.5130 ha         1 40Z       0.138000
     43 H12          4.3730     1.0950     1.6670 ha         1 40Z       0.144000
     44 H13         -1.8670    -1.9210    -0.4430 ha         1 40Z       0.145000
     45 H14         -4.4380     3.4110    -0.8930 hn         1 40Z       0.318000
     46 H15         -6.0030     3.3560    -0.1110 hn         1 40Z       0.318000
     47 H16          0.9710     4.0410    -0.6020 h1         1 40Z       0.061200
     48 H17         -0.2680     3.5520     0.5390 h1         1 40Z       0.061200
     49 H18          2.3080     0.9950     3.4600 h4         1 40Z       0.053100
     50 H19         -0.3310     0.5210    -3.4750 hc         1 40Z       0.062200
     51 H20          1.3220     0.8530    -3.9630 hc         1 40Z       0.062200
     52 H21          1.5720    -3.9910     0.0110 hc         1 40Z       0.039200
     53 H22          2.0840    -4.9140     1.4270 hc         1 40Z       0.039200
     54 H23          0.3760    -4.5170     1.1980 hc         1 40Z       0.039200
     55 H24          4.1150    -1.3120    -2.8030 hc         1 40Z       0.046033
     56 H25          3.4950     0.2240    -3.4200 hc         1 40Z       0.046033
     57 H26          4.3990     0.1920    -1.9020 hc         1 40Z       0.046033
     58 C24         -4.8690     1.6740     0.1190 c          1 40Z       0.623700
@<TRIPOS>BOND
     1     1    10 1   
     2     1    19 1   
     3     1    20 1   
     4     2     3 1   
     5     2    27 2   
     6     2    30 1   
     7     3     4 1   
     8     3    29 2   
     9     4     5 1   
    10     4    32 1   
    11     4    33 1   
    12     5     6 1   
    13     5     7 1   
    14     5    28 1   
    15     6    27 1   
    16     6    34 1   
    17     6    35 1   
    18     7    36 1   
    19     7    37 1   
    20     7    38 1   
    21     8    14 1   
    22     8    15 ar  
    23     8    16 ar  
    24     9    16 ar  
    25     9    19 ar  
    26     9    39 1   
    27    10    23 1   
    28    10    40 1   
    29    10    41 1   
    30    11    12 2   
    31    11    20 1   
    32    11    21 1   
    33    12    13 1   
    34    12    42 1   
    35    13    22 2   
    36    13    43 1   
    37    15    25 ar  
    38    15    44 1   
    39    16    58 1   
    40    17    45 1   
    41    17    46 1   
    42    17    58 1   
    43    18    58 2   
    44    19    25 ar  
    45    20    47 1   
    46    20    48 1   
    47    21    22 1   
    48    22    49 1   
    49    23    24 1   
    50    23    50 1   
    51    23    51 1   
    52    24    26 1   
    53    24    30 2   
    54    25    26 1   
    55    26    27 1   
    56    28    52 1   
    57    28    53 1   
    58    28    54 1   
    59    30    31 1   
    60    31    55 1   
    61    31    56 1   
    62    31    57 1   
@<TRIPOS>SUBSTRUCTURE
     1 40Z         1 TEMP              0 ****  ****    0 ROOT
