@<TRIPOS>MOLECULE
411
   56    59     1     0     0
SMALL
abcg2


@<TRIPOS>ATOM
      1 C1           8.8120     0.3960    -1.2020 ca         1 411      -0.108000
      2 C2           8.4290    -0.8220    -1.7500 ca         1 411      -0.115000
      3 C3           7.2310    -1.4110    -1.3720 ca         1 411      -0.100500
      4 C4           6.3990    -0.8010    -0.4300 ca         1 411      -0.021000
      5 C5           6.8040     0.4150     0.1270 ca         1 411      -0.100500
      6 C6           7.9950     1.0100    -0.2620 ca         1 411      -0.115000
      7 C7           5.1630    -1.4850    -0.0340 cc         1 411      -0.116000
      8 C8           5.0160    -2.7970     0.3490 cd         1 411      -0.155000
      9 C9           3.6420    -3.0250     0.5700 cd         1 411      -0.160000
     10 C10          2.9770    -1.8480     0.3160 cc         1 411      -0.101000
     11 N1           3.9150    -0.9080    -0.0450 na         1 411       0.050000
     12 C11          3.6160     0.3880    -0.5850 c3         1 411      -0.025400
     13 C12          3.6100     1.4930     0.4690 c          1 411       0.596100
     14 O1           3.7900     1.2690     1.6430 o          1 411      -0.509100
     15 N2           3.3850     2.7150    -0.0820 ns         1 411      -0.453400
     16 C13          3.2620     3.9460     0.5790 c2         1 411       0.656800
     17 N3           2.9860     4.0010     1.8170 n2         1 411      -0.815100
     18 N4           3.3930     4.9890    -0.2990 nv         1 411      -1.086200
     19 C14          1.5310    -1.6170     0.3450 ca         1 411      -0.051000
     20 C15          0.6860    -2.5290    -0.2860 ca         1 411      -0.071000
     21 C16         -0.6940    -2.4020    -0.2590 ca         1 411      -0.152500
     22 C17         -1.2740    -1.3220     0.4080 ca         1 411      -0.018000
     23 C18         -0.4380    -0.4010     1.0440 ca         1 411      -0.152500
     24 C19          0.9350    -0.5500     1.0200 ca         1 411      -0.071000
     25 N5          -2.6480    -1.0830     0.4950 ns         1 411      -0.140000
     26 C20         -3.6770    -1.8290     0.0230 c          1 411       0.620700
     27 O2          -3.5450    -2.8960    -0.5480 o          1 411      -0.574100
     28 C21         -5.0380    -1.2560     0.2680 ca         1 411      -0.154600
     29 C22         -6.1040    -2.1410     0.3980 ca         1 411      -0.045000
     30 C23         -7.3850    -1.6600     0.6120 ca         1 411      -0.117000
     31 C24         -7.6250    -0.2940     0.6770 ca         1 411      -0.062000
     32 C25         -6.5600     0.5800     0.5250 ca         1 411      -0.028900
     33 C26         -5.2690     0.1170     0.3240 ca         1 411      -0.064000
     34 BR          -6.8730     2.4400     0.5830 br         1 411      -0.089100
     35 H1           9.7430     0.8600    -1.5020 ha         1 411       0.112000
     36 H2           9.0590    -1.3110    -2.4820 ha         1 411       0.113000
     37 H3           6.9310    -2.3500    -1.8170 ha         1 411       0.124000
     38 H5           6.2070     0.8840     0.8970 ha         1 411       0.124000
     39 H6           8.2910     1.9510     0.1830 ha         1 411       0.113000
     40 H8           5.8220    -3.5020     0.4760 ha         1 411       0.135000
     41 H9           3.1790    -3.9410     0.9030 ha         1 411       0.136000
     42 H11          4.3410     0.6300    -1.3650 h1         1 411       0.080200
     43 H11A         2.6410     0.3620    -1.0760 h1         1 411       0.080200
     44 HN2          3.2960     2.7460    -1.0870 hn         1 411       0.320500
     45 HN3          2.9690     4.9660     2.1280 hn         1 411       0.385400
     46 HN4          4.0320     4.8750    -1.0710 hn         1 411       0.462000
     47 HN4A         3.4390     5.9070     0.1130 hn         1 411       0.462000
     48 H15          1.1160    -3.3650    -0.8240 ha         1 411       0.128500
     49 H16         -1.2960    -3.1390    -0.7620 ha         1 411       0.131000
     50 H18         -0.8690     0.4390     1.5760 ha         1 411       0.131000
     51 H19          1.5380     0.1600     1.5670 ha         1 411       0.128500
     52 HN5         -2.8920    -0.2700     1.0400 hn         1 411       0.155000
     53 H22         -5.9320    -3.2070     0.3420 ha         1 411       0.140000
     54 H23         -8.2090    -2.3500     0.7270 ha         1 411       0.125000
     55 H24         -8.6300     0.0720     0.8390 ha         1 411       0.133000
     56 H26         -4.4610     0.8250     0.1860 ha         1 411       0.129000
@<TRIPOS>BOND
     1     1     2 ar  
     2     1     6 ar  
     3     1    35 1   
     4     2     3 ar  
     5     2    36 1   
     6     3     4 ar  
     7     3    37 1   
     8     4     5 ar  
     9     4     7 1   
    10     5     6 ar  
    11     5    38 1   
    12     6    39 1   
    13     7     8 2   
    14     7    11 1   
    15     8     9 1   
    16     8    40 1   
    17     9    10 2   
    18     9    41 1   
    19    10    11 1   
    20    10    19 1   
    21    11    12 1   
    22    12    13 1   
    23    12    42 1   
    24    12    43 1   
    25    13    14 2   
    26    13    15 1   
    27    15    16 1   
    28    15    44 1   
    29    16    17 2   
    30    16    18 1   
    31    17    45 1   
    32    18    46 1   
    33    18    47 1   
    34    19    20 ar  
    35    19    24 ar  
    36    20    21 ar  
    37    20    48 1   
    38    21    22 ar  
    39    21    49 1   
    40    22    23 ar  
    41    22    25 1   
    42    23    24 ar  
    43    23    50 1   
    44    24    51 1   
    45    25    26 1   
    46    25    52 1   
    47    26    27 2   
    48    26    28 1   
    49    28    29 ar  
    50    28    33 ar  
    51    29    30 ar  
    52    29    53 1   
    53    30    31 ar  
    54    30    54 1   
    55    31    32 ar  
    56    31    55 1   
    57    32    33 ar  
    58    32    34 1   
    59    33    56 1   
@<TRIPOS>SUBSTRUCTURE
     1 411         1 TEMP              0 ****  ****    0 ROOT
