@<TRIPOS>MOLECULE
411
   56    59     1     0     0
SMALL
No Charge or Current Charge


@<TRIPOS>ATOM
      1 C1           9.1040     0.0910    -1.0810 ca         1 411      -0.108000
      2 C2           8.7030    -1.1910    -1.4890 ca         1 411      -0.115000
      3 C3           7.4230    -1.6670    -1.1570 ca         1 411      -0.100500
      4 C4           6.5270    -0.8660    -0.4190 ca         1 411      -0.021000
      5 C5           6.9440     0.4170    -0.0060 ca         1 411      -0.100500
      6 C6           8.2250     0.8930    -0.3370 ca         1 411      -0.115000
      7 C7           5.1950    -1.3780    -0.0860 cc         1 411      -0.116000
      8 C8           4.9940    -2.6660     0.3360 cd         1 411      -0.155000
      9 C9           3.6110    -2.8580     0.5290 cd         1 411      -0.160000
     10 C10          2.9690    -1.6860     0.2250 cc         1 411      -0.101000
     11 N1           3.9440    -0.7460    -0.1410 na         1 411       0.050000
     12 C11          3.6800     0.5960    -0.6940 c3         1 411      -0.025400
     13 C12          3.6540     1.7290     0.3400 c          1 411       0.596100
     14 O1           3.8560     1.5500     1.5340 o          1 411      -0.509100
     15 N2           3.3990     2.9650    -0.2000 ns         1 411      -0.453400
     16 C13          3.2410     4.1440     0.4580 c2         1 411       0.656800
     17 N3           2.6220     4.3110     1.5360 n2         1 411      -0.815100
     18 N4           3.5730     5.1340    -0.3750 nv         1 411      -1.086200
     19 C14          1.5100    -1.5600     0.2810 ca         1 411      -0.051000
     20 C15          0.6960    -2.5900    -0.2300 ca         1 411      -0.071000
     21 C16         -0.7060    -2.4870    -0.1910 ca         1 411      -0.152500
     22 C17         -1.3240    -1.3480     0.3670 ca         1 411      -0.018000
     23 C18         -0.5090    -0.3280     0.8910 ca         1 411      -0.152500
     24 C19          0.8920    -0.4310     0.8500 ca         1 411      -0.071000
     25 N5          -2.7330    -1.1710     0.4490 ns         1 411      -0.140000
     26 C20         -3.8060    -1.9160    -0.0310 c          1 411       0.620700
     27 O2          -3.6720    -2.9450    -0.6860 o          1 411      -0.574100
     28 C21         -5.1870    -1.3750     0.2990 ca         1 411      -0.154600
     29 C22         -6.3320    -2.0720    -0.1580 ca         1 411      -0.045000
     30 C23         -7.6240    -1.5990     0.1300 ca         1 411      -0.117000
     31 C24         -7.7960    -0.4240     0.8770 ca         1 411      -0.062000
     32 C25         -6.6710     0.2770     1.3360 ca         1 411      -0.028900
     33 C26         -5.3750    -0.1890     1.0530 ca         1 411      -0.064000
     34 Br          -6.9020     1.8790     2.3560 br         1 411      -0.089100
     35 H1          10.0950     0.4600    -1.3370 ha         1 411       0.112000
     36 H2           9.3830    -1.8160    -2.0650 ha         1 411       0.113000
     37 H3           7.1210    -2.6580    -1.4870 ha         1 411       0.124000
     38 H5           6.2890     1.0400     0.5930 ha         1 411       0.124000
     39 H6           8.5370     1.8830    -0.0100 ha         1 411       0.113000
     40 H8           5.7650    -3.4160     0.4870 ha         1 411       0.135000
     41 H9           3.1370    -3.7790     0.8540 ha         1 411       0.136000
     42 H11          4.4500     0.8320    -1.4380 h1         1 411       0.080200
     43 H11A         2.7120     0.5840    -1.2080 h1         1 411       0.080200
     44 HN2          3.2880     3.0070    -1.2000 hn         1 411       0.320500
     45 HN3          2.5370     5.3180     1.7090 hn         1 411       0.385400
     46 HN4          4.3820     4.9290    -0.9520 hn         1 411       0.462000
     47 HN4A         3.6010     6.0560     0.0460 hn         1 411       0.462000
     48 H15          1.1530    -3.4730    -0.6720 ha         1 411       0.128500
     49 H16         -1.2880    -3.3080    -0.5970 ha         1 411       0.131000
     50 H18         -0.9630     0.5550     1.3390 ha         1 411       0.131000
     51 H19          1.4910     0.3620     1.2850 ha         1 411       0.128500
     52 HN5         -3.0050    -0.3410     0.9560 hn         1 411       0.155000
     53 H22         -6.2250    -2.9860    -0.7390 ha         1 411       0.140000
     54 H23         -8.4940    -2.1460    -0.2280 ha         1 411       0.125000
     55 H24         -8.7970    -0.0590     1.0990 ha         1 411       0.133000
     56 H26         -4.5330     0.3860     1.4290 ha         1 411       0.129000
@<TRIPOS>BOND
     1     1     2 ar  
     2     1     6 ar  
     3     1    35 1   
     4     2     3 ar  
     5     2    36 1   
     6     3     4 ar  
     7     3    37 1   
     8     4     5 ar  
     9     4     7 1   
    10     5     6 ar  
    11     5    38 1   
    12     6    39 1   
    13     7     8 2   
    14     7    11 1   
    15     8     9 1   
    16     8    40 1   
    17     9    10 2   
    18     9    41 1   
    19    10    11 1   
    20    10    19 1   
    21    11    12 1   
    22    12    13 1   
    23    12    42 1   
    24    12    43 1   
    25    13    14 2   
    26    13    15 1   
    27    15    16 1   
    28    15    44 1   
    29    16    17 2   
    30    16    18 1   
    31    17    45 1   
    32    18    46 1   
    33    18    47 1   
    34    19    20 ar  
    35    19    24 ar  
    36    20    21 ar  
    37    20    48 1   
    38    21    22 ar  
    39    21    49 1   
    40    22    23 ar  
    41    22    25 1   
    42    23    24 ar  
    43    23    50 1   
    44    24    51 1   
    45    25    26 1   
    46    25    52 1   
    47    26    27 2   
    48    26    28 1   
    49    28    29 ar  
    50    28    33 ar  
    51    29    30 ar  
    52    29    53 1   
    53    30    31 ar  
    54    30    54 1   
    55    31    32 ar  
    56    31    55 1   
    57    32    33 ar  
    58    32    34 1   
    59    33    56 1   
@<TRIPOS>SUBSTRUCTURE
     1 411         1 TEMP              0 ****  ****    0 ROOT
