@<TRIPOS>MOLECULE
413
   69    72     1     0     0
SMALL
No Charge or Current Charge


@<TRIPOS>ATOM
      1 O31          9.1280    39.0490    34.5140 o          1 413      -0.643100
      2 C31          8.6000    39.7580    33.6600 c          1 413       0.589100
      3 N4           7.4740    40.5090    33.9290 ns         1 413      -0.450900
      4 C23          6.9030    40.7260    35.2780 c3         1 413      -0.017000
      5 C24          7.7690    41.6940    36.0840 ca         1 413      -0.030300
      6 C25          8.1380    42.9460    35.5470 ca         1 413      -0.095500
      7 C26          8.9500    43.8250    36.2830 ca         1 413      -0.123500
      8 C27          9.4010    43.4610    37.5620 ca         1 413      -0.140000
      9 C28          9.0380    42.2170    38.1050 ca         1 413      -0.123500
     10 C29          8.2260    41.3370    37.3680 ca         1 413      -0.095500
     11 C30          5.4280    41.2230    35.1930 c          1 413       0.727000
     12 O30          5.1030    41.9360    34.2510 o          1 413      -0.708500
     13 O40          4.6460    40.8570    36.0610 o          1 413      -0.708500
     14 C8           9.1710    39.9260    32.2030 c3         1 413       0.187800
     15 N3          10.3580    39.0580    31.9260 nu         1 413      -0.948200
     16 C5          11.2790    39.2520    30.8990 ca         1 413       0.369000
     17 C4          10.8590    39.5760    29.6010 ca         1 413      -0.209500
     18 C3          11.8010    39.7950    28.5820 ca         1 413      -0.029000
     19 C6          12.6460    39.1350    31.1730 ca         1 413      -0.209500
     20 C7          13.5950    39.3500    30.1590 ca         1 413      -0.029000
     21 C2          13.1850    39.6660    28.8430 ca         1 413      -0.228900
     22 C1          14.2010    39.9260    27.7780 ce         1 413       0.677800
     23 N2          15.4200    40.1760    28.0220 n2         1 413      -0.847100
     24 N1          13.8410    39.6890    26.5030 nv         1 413      -1.075200
     25 C9           9.5360    41.3920    31.9530 ca         1 413      -0.108300
     26 C14         10.4470    42.0540    32.8030 ca         1 413      -0.145000
     27 C13         10.8240    43.3920    32.5520 ca         1 413       0.110100
     28 O3          11.7280    44.0610    33.3630 os         1 413      -0.330100
     29 C15         12.3160    43.4530    34.5270 c3         1 413       0.142900
     30 C12         10.2920    44.0670    31.4270 ca         1 413       0.106100
     31 C11          9.3540    43.4120    30.6000 ca         1 413      -0.154000
     32 C10          8.9790    42.0860    30.8640 ca         1 413      -0.092000
     33 O4          10.7290    45.3530    31.1540 os         1 413      -0.325100
     34 C16         10.6590    45.9270    29.8320 c3         1 413       0.204900
     35 C17         11.4300    45.0470    28.8440 ca         1 413      -0.121300
     36 C22         12.7250    44.5820    29.1560 ca         1 413      -0.093000
     37 C21         13.4140    43.7450    28.2610 ca         1 413      -0.114500
     38 C20         12.8180    43.3710    27.0460 ca         1 413      -0.110000
     39 C19         11.5320    43.8360    26.7240 ca         1 413      -0.114500
     40 C18         10.8400    44.6710    27.6190 ca         1 413      -0.093000
     41 H4           7.1010    41.0640    33.1670 hn         1 413       0.346500
     42 H23          6.8770    39.7560    35.7900 h1         1 413       0.065700
     43 H25          7.7990    43.2370    34.5550 ha         1 413       0.113500
     44 H26          9.2320    44.7870    35.8600 ha         1 413       0.094000
     45 H27         10.0300    44.1410    38.1310 ha         1 413       0.088000
     46 H28          9.3880    41.9340    39.0950 ha         1 413       0.094000
     47 H29          7.9550    40.3740    37.7950 ha         1 413       0.113500
     48 H8           8.3560    39.6500    31.5190 h1         1 413       0.073700
     49 H3          10.7580    38.6310    32.7640 hn         1 413       0.509000
     50 HA           9.8010    39.6690    29.3810 ha         1 413       0.116500
     51 HB          11.4450    40.0760    27.5920 ha         1 413       0.114500
     52 H6          12.9810    38.8920    32.1770 ha         1 413       0.116500
     53 H7          14.6530    39.2620    30.3990 ha         1 413       0.114500
     54 HN2         15.8640    40.4600    27.1440 hn         1 413       0.356400
     55 H1N1        14.5900    39.4110    25.8820 hn         1 413       0.452500
     56 H1N2        12.9750    39.1760    26.3910 hn         1 413       0.452500
     57 H14         10.8650    41.5070    33.6430 ha         1 413       0.129000
     58 H151        12.9850    44.1630    35.0280 h1         1 413       0.040367
     59 H152        12.9040    42.5690    34.2500 h1         1 413       0.040367
     60 H153        11.5420    43.1510    35.2440 h1         1 413       0.040367
     61 H11          8.9140    43.9140    29.7430 ha         1 413       0.121000
     62 H10          8.2690    41.5910    30.2040 ha         1 413       0.118000
     63 H161        11.1050    46.9300    29.8370 h1         1 413       0.059700
     64 H162         9.6150    46.0390    29.5120 h1         1 413       0.059700
     65 H22         13.1920    44.8600    30.0980 ha         1 413       0.120000
     66 H21         14.4090    43.3830    28.5120 ha         1 413       0.109500
     67 H20         13.3510    42.7210    26.3550 ha         1 413       0.106000
     68 H19         11.0700    43.5470    25.7830 ha         1 413       0.109500
     69 H18          9.8420    45.0190    27.3620 ha         1 413       0.120000
@<TRIPOS>BOND
     1     1     2 2   
     2     2     3 1   
     3     2    14 1   
     4     3     4 1   
     5     3    41 1   
     6     4     5 1   
     7     4    11 1   
     8     4    42 1   
     9     5     6 ar  
    10     5    10 ar  
    11     6     7 ar  
    12     6    43 1   
    13     7     8 ar  
    14     7    44 1   
    15     8     9 ar  
    16     8    45 1   
    17     9    10 ar  
    18     9    46 1   
    19    10    47 1   
    20    11    12 1   
    21    11    13 1   
    22    14    15 1   
    23    14    25 1   
    24    14    48 1   
    25    15    16 1   
    26    15    49 1   
    27    16    17 ar  
    28    16    19 ar  
    29    17    18 ar  
    30    17    50 1   
    31    18    21 ar  
    32    18    51 1   
    33    19    20 ar  
    34    19    52 1   
    35    20    21 ar  
    36    20    53 1   
    37    21    22 1   
    38    22    23 2   
    39    22    24 1   
    40    23    54 1   
    41    24    55 1   
    42    24    56 1   
    43    25    26 ar  
    44    25    32 ar  
    45    26    27 ar  
    46    26    57 1   
    47    27    28 1   
    48    27    30 ar  
    49    28    29 1   
    50    29    58 1   
    51    29    59 1   
    52    29    60 1   
    53    30    31 ar  
    54    30    33 1   
    55    31    32 ar  
    56    31    61 1   
    57    32    62 1   
    58    33    34 1   
    59    34    35 1   
    60    34    63 1   
    61    34    64 1   
    62    35    36 ar  
    63    35    40 ar  
    64    36    37 ar  
    65    36    65 1   
    66    37    38 ar  
    67    37    66 1   
    68    38    39 ar  
    69    38    67 1   
    70    39    40 ar  
    71    39    68 1   
    72    40    69 1   
@<TRIPOS>SUBSTRUCTURE
     1 413         1 TEMP              0 ****  ****    0 ROOT
