@<TRIPOS>MOLECULE
413
   69    72     1     0     0
SMALL
bcc


@<TRIPOS>ATOM
      1 O31          9.6040    39.4500    34.5880 o          1 413      -0.643100
      2 C31          9.0400    39.8770    33.5910 c          1 413       0.656100
      3 N4           7.7970    40.3590    33.5810 ns         1 413      -0.517900
      4 C23          7.0330    40.6410    34.7680 c3         1 413      -0.017000
      5 C24          7.6810    41.6990    35.6290 ca         1 413      -0.030300
      6 C25          8.3640    42.7700    35.0580 ca         1 413      -0.113500
      7 C26          8.9320    43.7530    35.8580 ca         1 413      -0.141500
      8 C27          8.8170    43.6850    37.2400 ca         1 413      -0.158000
      9 C28          8.1280    42.6250    37.8160 ca         1 413      -0.141500
     10 C29          7.5660    41.6410    37.0140 ca         1 413      -0.113500
     11 C30          5.6130    41.1330    34.3520 c          1 413       0.937600
     12 O30          5.4410    41.3730    33.1420 o          1 413      -0.813800
     13 O40          4.8020    41.2520    35.2800 o          1 413      -0.813800
     14 C8           9.7590    39.9670    32.2390 c3         1 413       0.187800
     15 N3          10.9040    39.1090    32.2810 nu         1 413      -0.754600
     16 C5          11.7270    38.8920    31.2160 ca         1 413       0.230600
     17 C4          11.3950    39.2790    29.9110 ca         1 413      -0.227500
     18 C3          12.2400    38.9860    28.8540 ca         1 413      -0.047000
     19 C6          12.9480    38.2220    31.4090 ca         1 413      -0.227500
     20 C7          13.7800    37.9450    30.3470 ca         1 413      -0.047000
     21 C2          13.4430    38.3090    29.0400 ca         1 413      -0.228900
     22 C1          14.3620    37.9880    27.9220 ce         1 413       0.677800
     23 N2          15.5900    37.7330    28.1770 n2         1 413      -0.847100
     24 N1          13.8110    38.0420    26.6700 nv         1 413      -0.964800
     25 C9          10.0710    41.4330    32.0020 ca         1 413      -0.108300
     26 C14         11.0250    42.0720    32.7970 ca         1 413      -0.163000
     27 C13         11.2600    43.4280    32.6650 ca         1 413       0.110100
     28 O3          12.1400    44.1310    33.4010 os         1 413      -0.306900
     29 C15         12.8270    43.4570    34.4350 c3         1 413       0.119700
     30 C12         10.5350    44.1730    31.7100 ca         1 413       0.106100
     31 C11          9.5980    43.5330    30.9210 ca         1 413      -0.172000
     32 C10          9.3650    42.1660    31.0720 ca         1 413      -0.110000
     33 O4          10.8300    45.4900    31.6650 os         1 413      -0.301900
     34 C16         10.2680    46.2800    30.6370 c3         1 413       0.181700
     35 C17         10.8140    45.9550    29.2710 ca         1 413      -0.121300
     36 C22         12.1520    45.6120    29.0980 ca         1 413      -0.111000
     37 C21         12.6520    45.3530    27.8300 ca         1 413      -0.132500
     38 C20         11.8220    45.4420    26.7180 ca         1 413      -0.128000
     39 C19         10.4880    45.7870    26.8840 ca         1 413      -0.132500
     40 C18          9.9870    46.0360    28.1550 ca         1 413      -0.111000
     41 H4           7.3810    40.7070    32.7270 hn         1 413       0.346500
     42 H23          6.9130    39.7290    35.3610 h1         1 413       0.065700
     43 H25          8.4720    42.8380    33.9820 ha         1 413       0.131500
     44 H26          9.4690    44.5730    35.3970 ha         1 413       0.112000
     45 H27          9.2630    44.4500    37.8630 ha         1 413       0.106000
     46 H28          8.0340    42.5590    38.8930 ha         1 413       0.112000
     47 H29          7.0430    40.8100    37.4710 ha         1 413       0.131500
     48 H8           9.0680    39.6310    31.4570 h1         1 413       0.073700
     49 H3          11.2650    38.9080    33.2020 hn         1 413       0.453800
     50 HA          10.4780    39.8150    29.7070 ha         1 413       0.134500
     51 HB          11.9430    39.3210    27.8680 ha         1 413       0.132500
     52 H6          13.2360    37.9190    32.4090 ha         1 413       0.134500
     53 H7          14.7120    37.4260    30.5270 ha         1 413       0.132500
     54 HN2         16.0950    37.4930    27.3280 hn         1 413       0.356400
     55 H1N1        14.3670    37.6790    25.9120 hn         1 413       0.397300
     56 H1N2        12.8300    37.8350    26.5720 hn         1 413       0.397300
     57 H14         11.5690    41.4920    33.5310 ha         1 413       0.147000
     58 H151        13.4540    44.1980    34.9250 h1         1 413       0.040367
     59 H152        13.4630    42.6560    34.0500 h1         1 413       0.040367
     60 H153        12.1380    43.0350    35.1730 h1         1 413       0.040367
     61 H11          9.0310    44.0730    30.1760 ha         1 413       0.139000
     62 H10          8.6240    41.6860    30.4430 ha         1 413       0.136000
     63 H161        10.5260    47.3060    30.9050 h1         1 413       0.059700
     64 H162         9.1750    46.2190    30.6390 h1         1 413       0.059700
     65 H22         12.8120    45.5440    29.9550 ha         1 413       0.138000
     66 H21         13.6930    45.0840    27.7080 ha         1 413       0.127500
     67 H20         12.2140    45.2410    25.7300 ha         1 413       0.124000
     68 H19          9.8330    45.8550    26.0250 ha         1 413       0.127500
     69 H18          8.9400    46.2880    28.2800 ha         1 413       0.138000
@<TRIPOS>BOND
     1     1     2 2   
     2     2     3 1   
     3     2    14 1   
     4     3     4 1   
     5     3    41 1   
     6     4     5 1   
     7     4    11 1   
     8     4    42 1   
     9     5     6 ar  
    10     5    10 ar  
    11     6     7 ar  
    12     6    43 1   
    13     7     8 ar  
    14     7    44 1   
    15     8     9 ar  
    16     8    45 1   
    17     9    10 ar  
    18     9    46 1   
    19    10    47 1   
    20    11    12 1   
    21    11    13 1   
    22    14    15 1   
    23    14    25 1   
    24    14    48 1   
    25    15    16 1   
    26    15    49 1   
    27    16    17 ar  
    28    16    19 ar  
    29    17    18 ar  
    30    17    50 1   
    31    18    21 ar  
    32    18    51 1   
    33    19    20 ar  
    34    19    52 1   
    35    20    21 ar  
    36    20    53 1   
    37    21    22 1   
    38    22    23 2   
    39    22    24 1   
    40    23    54 1   
    41    24    55 1   
    42    24    56 1   
    43    25    26 ar  
    44    25    32 ar  
    45    26    27 ar  
    46    26    57 1   
    47    27    28 1   
    48    27    30 ar  
    49    28    29 1   
    50    29    58 1   
    51    29    59 1   
    52    29    60 1   
    53    30    31 ar  
    54    30    33 1   
    55    31    32 ar  
    56    31    61 1   
    57    32    62 1   
    58    33    34 1   
    59    34    35 1   
    60    34    63 1   
    61    34    64 1   
    62    35    36 ar  
    63    35    40 ar  
    64    36    37 ar  
    65    36    65 1   
    66    37    38 ar  
    67    37    66 1   
    68    38    39 ar  
    69    38    67 1   
    70    39    40 ar  
    71    39    68 1   
    72    40    69 1   
@<TRIPOS>SUBSTRUCTURE
     1 413         1 TEMP              0 ****  ****    0 ROOT
