@<TRIPOS>MOLECULE
414
   65    67     1     0     0
SMALL
No Charge or Current Charge


@<TRIPOS>ATOM
      1 C37         16.8690    28.1470    53.1160 ca         1 414      -0.078500
      2 C38         17.6500    28.5160    52.0060 ca         1 414      -0.121000
      3 C39         17.1070    29.3390    51.0060 ca         1 414      -0.125000
      4 C40         15.7820    29.7930    51.1150 ca         1 414      -0.121000
      5 C41         15.0000    29.4250    52.2240 ca         1 414      -0.078500
      6 C36         15.5400    28.6020    53.2320 ca         1 414      -0.076300
      7 C33         14.6950    28.2060    54.4360 c3         1 414       0.227900
      8 O32         13.9850    26.9990    54.1210 os         1 414      -0.444100
      9 C30         13.1590    26.4890    55.0730 c          1 414       0.622100
     10 O31         12.9750    26.9630    56.1840 o          1 414      -0.614000
     11 N29         12.5790    25.3480    54.5900 ns         1 414      -0.464900
     12 C25         11.6360    24.4550    55.3290 c3         1 414      -0.216300
     13 C50         10.1270    24.8320    55.1030 c6         1 414      -0.029700
     14 C51          9.7360    25.0060    53.6030 c6         1 414      -0.075900
     15 C52          8.2290    25.3250    53.4400 c6         1 414      -0.069400
     16 C53          7.8280    26.5780    54.2530 c6         1 414      -0.071400
     17 C54          8.2130    26.4220    55.7440 c6         1 414      -0.069400
     18 C55          9.7210    26.1060    55.9010 c6         1 414      -0.075900
     19 P24         12.0770    22.6310    55.1990 p5         1 414       1.412400
     20 O34         11.2620    21.8100    56.1480 o          1 414      -0.831500
     21 O35         13.5450    22.4340    55.4150 o          1 414      -0.831500
     22 O23         11.6510    22.3340    53.6680 os         1 414      -0.602400
     23 C1          12.5970    21.7500    52.7320 c3         1 414       0.123600
     24 C2          13.7200    22.7390    52.2450 c          1 414       0.716000
     25 O14         14.7120    22.2600    51.7090 o          1 414      -0.728500
     26 O13         13.5530    23.9490    52.3640 o          1 414      -0.728500
     27 C3          11.8050    21.2270    51.5350 ca         1 414       0.021700
     28 C8          11.8050    19.8520    51.2250 ca         1 414      -0.120000
     29 C4          11.0580    22.1130    50.7320 ca         1 414      -0.087000
     30 C5          10.3210    21.6320    49.6380 ca         1 414      -0.115000
     31 C6          10.3280    20.2590    49.3380 ca         1 414      -0.191000
     32 C7          11.0750    19.3690    50.1240 ca         1 414       0.259000
     33 N9          11.0580    18.0130    49.8110 nu         1 414      -0.974200
     34 C10         12.0280    17.1480    49.6630 c2         1 414       0.794100
     35 N12         13.2010    17.5060    49.5080 n2         1 414      -0.902100
     36 N11         11.4600    16.1360    49.0790 nv         1 414      -1.047200
     37 H37         17.2960    27.5070    53.8850 ha         1 414       0.123000
     38 H38         18.6750    28.1620    51.9220 ha         1 414       0.101500
     39 H39         17.7110    29.6240    50.1470 ha         1 414       0.089000
     40 H40         15.3600    30.4290    50.3400 ha         1 414       0.101500
     41 H41         13.9740    29.7790    52.3000 ha         1 414       0.123000
     42 H331        15.3450    28.0570    55.3080 h1         1 414       0.039200
     43 H332        13.9930    29.0180    54.6710 h1         1 414       0.039200
     44 HN29        12.9250    25.0420    53.6770 hn         1 414       0.392500
     45 H25         11.8340    24.5920    56.3990 h1         1 414       0.067700
     46 H50          9.5440    23.9940    55.5120 hc         1 414       0.052700
     47 H511        10.3260    25.8130    53.1470 hc         1 414       0.053450
     48 H512         9.9660    24.0970    53.0350 hc         1 414       0.053450
     49 H521         7.9940    25.4800    52.3790 hc         1 414       0.017700
     50 H522         7.6320    24.4630    53.7700 hc         1 414       0.017700
     51 H531         8.3230    27.4650    53.8340 hc         1 414       0.016700
     52 H532         6.7470    26.7510    54.1640 hc         1 414       0.016700
     53 H541         7.9670    27.3430    56.2900 hc         1 414       0.017700
     54 H542         7.6160    25.6190    56.1990 hc         1 414       0.017700
     55 H551         9.9580    25.9760    56.9650 hc         1 414       0.053450
     56 H552        10.3060    26.9680    55.5540 hc         1 414       0.053450
     57 H1          13.1130    20.9040    53.2050 h1         1 414       0.053700
     58 H8          12.3630    19.1580    51.8470 ha         1 414       0.130000
     59 H4          11.0470    23.1760    50.9630 ha         1 414       0.134000
     60 H5           9.7440    22.3210    49.0260 ha         1 414       0.083000
     61 H6           9.7550    19.8930    48.4900 ha         1 414       0.076000
     62 HN9         10.3110    17.7440    49.1870 hn         1 414       0.462000
     63 HN12        13.2010    18.4860    49.8030 hn         1 414       0.427400
     64 H111        12.1640    15.5040    48.7240 hn         1 414       0.450000
     65 H112        10.7940    15.6840    49.6890 hn         1 414       0.450000
@<TRIPOS>BOND
     1     1     2 ar  
     2     1     6 ar  
     3     1    37 1   
     4     2     3 ar  
     5     2    38 1   
     6     3     4 ar  
     7     3    39 1   
     8     4     5 ar  
     9     4    40 1   
    10     5     6 ar  
    11     5    41 1   
    12     6     7 1   
    13     7     8 1   
    14     7    42 1   
    15     7    43 1   
    16     8     9 1   
    17     9    10 2   
    18     9    11 1   
    19    11    12 1   
    20    11    44 1   
    21    12    13 1   
    22    12    19 1   
    23    12    45 1   
    24    13    14 1   
    25    13    18 1   
    26    13    46 1   
    27    14    15 1   
    28    14    47 1   
    29    14    48 1   
    30    15    16 1   
    31    15    49 1   
    32    15    50 1   
    33    16    17 1   
    34    16    51 1   
    35    16    52 1   
    36    17    18 1   
    37    17    53 1   
    38    17    54 1   
    39    18    55 1   
    40    18    56 1   
    41    19    20 1   
    42    19    21 1   
    43    19    22 1   
    44    22    23 1   
    45    23    24 1   
    46    23    27 1   
    47    23    57 1   
    48    24    25 1   
    49    24    26 1   
    50    27    28 ar  
    51    27    29 ar  
    52    28    32 ar  
    53    28    58 1   
    54    29    30 ar  
    55    29    59 1   
    56    30    31 ar  
    57    30    60 1   
    58    31    32 ar  
    59    31    61 1   
    60    32    33 1   
    61    33    34 1   
    62    33    62 1   
    63    34    35 2   
    64    34    36 1   
    65    35    63 1   
    66    36    64 1   
    67    36    65 1   
@<TRIPOS>SUBSTRUCTURE
     1 414         1 TEMP              0 ****  ****    0 ROOT
