@<TRIPOS>MOLECULE
414
   65    67     1     0     0
SMALL
abcg2


@<TRIPOS>ATOM
      1 C37         15.9080    25.8830    51.8510 ca         1 414      -0.078500
      2 C38         16.5250    26.2350    50.6580 ca         1 414      -0.121000
      3 C39         16.9900    27.5350    50.4690 ca         1 414      -0.125000
      4 C40         16.8310    28.4790    51.4770 ca         1 414      -0.121000
      5 C41         16.2050    28.1250    52.6700 ca         1 414      -0.078500
      6 C36         15.7410    26.8260    52.8680 ca         1 414      -0.076300
      7 C33         15.0660    26.4420    54.1510 c3         1 414       0.227900
      8 O32         13.6950    26.1180    53.8370 os         1 414      -0.444100
      9 C30         12.9580    25.5510    54.8310 c          1 414       0.622100
     10 O31         13.3810    25.4060    55.9720 o          1 414      -0.614000
     11 N29         11.7480    25.2020    54.3710 ns         1 414      -0.464900
     12 C25         10.7750    24.4720    55.1710 c3         1 414      -0.216300
     13 C50          9.4950    25.2800    55.4360 c6         1 414      -0.029700
     14 C51          8.7380    25.6820    54.1660 c6         1 414      -0.075900
     15 C52          7.4780    26.4880    54.4890 c6         1 414      -0.069400
     16 C53          7.8000    27.7200    55.3350 c6         1 414      -0.071400
     17 C54          8.5490    27.3280    56.6100 c6         1 414      -0.069400
     18 C55          9.8050    26.5160    56.2910 c6         1 414      -0.075900
     19 P24         10.5470    22.7800    54.4470 p5         1 414       1.412400
     20 O34          9.2030    22.2410    54.8380 o          1 414      -0.831500
     21 O35         11.7850    21.9820    54.7480 o          1 414      -0.831500
     22 O23         10.4820    23.0880    52.8390 os         1 414      -0.602400
     23 C1          11.5980    22.8790    51.9690 c3         1 414       0.123600
     24 C2          11.9130    24.1530    51.1280 c          1 414       0.716000
     25 O14         12.6920    23.9830    50.1640 o          1 414      -0.728500
     26 O13         11.4160    25.2440    51.5060 o          1 414      -0.728500
     27 C3          11.3440    21.6680    51.1050 ca         1 414       0.021700
     28 C8          12.3100    20.6730    51.0020 ca         1 414      -0.120000
     29 C4          10.1380    21.5290    50.4180 ca         1 414      -0.087000
     30 C5           9.9150    20.4050    49.6340 ca         1 414      -0.115000
     31 C6          10.8930    19.4250    49.5050 ca         1 414      -0.191000
     32 C7          12.1020    19.5550    50.1890 ca         1 414       0.259000
     33 N9          13.0560    18.5270    50.0910 nu         1 414      -0.974200
     34 C10         14.4240    18.6930    49.9360 c2         1 414       0.794100
     35 N12         15.0680    19.7980    49.8130 n2         1 414      -0.902100
     36 N11         15.0910    17.4860    49.8740 nv         1 414      -1.047200
     37 H37         15.5450    24.8720    51.9960 ha         1 414       0.123000
     38 H38         16.6460    25.4960    49.8750 ha         1 414       0.101500
     39 H39         17.4740    27.8080    49.5390 ha         1 414       0.089000
     40 H40         17.1880    29.4910    51.3350 ha         1 414       0.101500
     41 H41         16.0760    28.8620    53.4530 ha         1 414       0.123000
     42 H331        15.5370    25.5670    54.6020 h1         1 414       0.039200
     43 H332        15.0920    27.2600    54.8700 h1         1 414       0.039200
     44 HN29        11.5790    25.2900    53.3640 hn         1 414       0.392500
     45 H25         11.2450    24.2840    56.1370 h1         1 414       0.067700
     46 H50          8.8410    24.6230    56.0190 hc         1 414       0.052700
     47 H511         9.3960    26.2870    53.5340 hc         1 414       0.053450
     48 H512         8.4800    24.7910    53.5910 hc         1 414       0.053450
     49 H521         6.9780    26.7850    53.5620 hc         1 414       0.017700
     50 H522         6.7740    25.8510    55.0360 hc         1 414       0.017700
     51 H531         8.4240    28.4050    54.7490 hc         1 414       0.016700
     52 H532         6.8830    28.2610    55.5840 hc         1 414       0.016700
     53 H541         8.8150    28.2200    57.1840 hc         1 414       0.017700
     54 H542         7.8850    26.7300    57.2450 hc         1 414       0.017700
     55 H551        10.3000    26.2060    57.2160 hc         1 414       0.053450
     56 H552        10.5160    27.1510    55.7510 hc         1 414       0.053450
     57 H1          12.4880    22.6920    52.5730 h1         1 414       0.053700
     58 H8          13.2220    20.7610    51.5770 ha         1 414       0.130000
     59 H4           9.3770    22.2930    50.5070 ha         1 414       0.134000
     60 H5           8.9770    20.2920    49.1040 ha         1 414       0.083000
     61 H6          10.7230    18.5560    48.8810 ha         1 414       0.076000
     62 HN9         12.6970    17.6370    49.7790 hn         1 414       0.462000
     63 HN12        14.4340    20.5890    49.7530 hn         1 414       0.427400
     64 H111        16.0950    17.5720    49.9310 hn         1 414       0.450000
     65 H112        14.7180    16.7350    50.4380 hn         1 414       0.450000
@<TRIPOS>BOND
     1     1     2 ar  
     2     1     6 ar  
     3     1    37 1   
     4     2     3 ar  
     5     2    38 1   
     6     3     4 ar  
     7     3    39 1   
     8     4     5 ar  
     9     4    40 1   
    10     5     6 ar  
    11     5    41 1   
    12     6     7 1   
    13     7     8 1   
    14     7    42 1   
    15     7    43 1   
    16     8     9 1   
    17     9    10 2   
    18     9    11 1   
    19    11    12 1   
    20    11    44 1   
    21    12    13 1   
    22    12    19 1   
    23    12    45 1   
    24    13    14 1   
    25    13    18 1   
    26    13    46 1   
    27    14    15 1   
    28    14    47 1   
    29    14    48 1   
    30    15    16 1   
    31    15    49 1   
    32    15    50 1   
    33    16    17 1   
    34    16    51 1   
    35    16    52 1   
    36    17    18 1   
    37    17    53 1   
    38    17    54 1   
    39    18    55 1   
    40    18    56 1   
    41    19    20 1   
    42    19    21 1   
    43    19    22 1   
    44    22    23 1   
    45    23    24 1   
    46    23    27 1   
    47    23    57 1   
    48    24    25 1   
    49    24    26 1   
    50    27    28 ar  
    51    27    29 ar  
    52    28    32 ar  
    53    28    58 1   
    54    29    30 ar  
    55    29    59 1   
    56    30    31 ar  
    57    30    60 1   
    58    31    32 ar  
    59    31    61 1   
    60    32    33 1   
    61    33    34 1   
    62    33    62 1   
    63    34    35 2   
    64    34    36 1   
    65    35    63 1   
    66    36    64 1   
    67    36    65 1   
@<TRIPOS>SUBSTRUCTURE
     1 414         1 TEMP              0 ****  ****    0 ROOT
