@<TRIPOS>MOLECULE
415
   46    47     1     0     0
SMALL
No Charge or Current Charge


@<TRIPOS>ATOM
      1 CAA          7.8520     2.8320     0.7930 c3         1 415       0.147900
      2 OAS          6.6700     2.5480     0.0230 os         1 415      -0.341100
      3 CAX          6.0230     1.3310     0.0880 ca         1 415       0.150100
      4 CAK          4.8760     1.1540    -0.7050 ca         1 415      -0.146000
      5 CAJ          6.4700     0.2760     0.9110 ca         1 415      -0.195000
      6 CAU          5.7660    -0.9370     0.9320 ca         1 415       0.154000
      7 ClC          6.3230    -2.2500     1.9610 cl         1 415      -0.208000
      8 CAI          4.6220    -1.1090     0.1390 ca         1 415      -0.119000
      9 CAV          4.1680    -0.0640    -0.6870 ca         1 415      -0.047300
     10 CAO          2.9260    -0.2510    -1.5490 c3         1 415       0.205100
     11 NAP          1.7040    -0.1030    -0.7360 n7         1 415      -0.864400
     12 CAM          0.4380    -0.2410    -1.4760 c3         1 415       0.163800
     13 CAL         -0.7540    -0.0830    -0.5140 c3         1 415      -0.100400
     14 CAN         -2.1090    -0.2290    -1.2280 c3         1 415       0.118000
     15 NAQ         -3.2290    -0.0770    -0.2990 ns         1 415      -0.525900
     16 CAT         -4.5510    -0.1450    -0.6670 c          1 415       0.662100
     17 OAB         -4.8930    -0.3430    -1.8240 o          1 415      -0.624100
     18 NAR         -5.4080     0.0330     0.4080 ns         1 415      -0.164000
     19 CAW         -6.8260     0.0440     0.5100 ca         1 415       0.000000
     20 CAG         -7.6920    -0.1510    -0.5900 ca         1 415      -0.155500
     21 CAE         -9.0860    -0.1270    -0.4110 ca         1 415      -0.081500
     22 CAD         -9.6300     0.0900     0.8650 ca         1 415      -0.141000
     23 CAF         -8.7790     0.2840     1.9640 ca         1 415      -0.081500
     24 CAH         -7.3850     0.2600     1.7840 ca         1 415      -0.155500
     25 H1           7.6460     2.7490     1.8680 h1         1 415       0.043367
     26 H2           8.6620     2.1380     0.5350 h1         1 415       0.043367
     27 H3           8.2010     3.8520     0.5920 h1         1 415       0.043367
     28 H4           4.5370     1.9710    -1.3360 ha         1 415       0.128000
     29 H5           7.3520     0.3780     1.5360 ha         1 415       0.133000
     30 H6           4.0840    -2.0530     0.1680 ha         1 415       0.147000
     31 H7           2.9370     0.4870    -2.3630 h1         1 415       0.041700
     32 H8           2.9600    -1.2470    -2.0120 h1         1 415       0.041700
     33 H9           1.7260     0.8290    -0.3060 hn         1 415       0.412000
     34 H11          0.3690     0.5210    -2.2640 h1         1 415       0.034700
     35 H12          0.3830    -1.2280    -1.9560 h1         1 415       0.034700
     36 H13         -0.6810    -0.8380     0.2780 hc         1 415       0.051200
     37 H14         -0.7050     0.9020    -0.0340 hc         1 415       0.051200
     38 H15         -2.1950     0.5330    -2.0150 h1         1 415       0.052700
     39 H16         -2.1720    -1.2200    -1.6990 h1         1 415       0.052700
     40 H17         -3.0280     0.0890     0.6790 hn         1 415       0.307500
     41 H18         -4.9390     0.1850     1.2900 hn         1 415       0.142000
     42 H19         -7.3070    -0.3210    -1.5900 ha         1 415       0.126500
     43 H20         -9.7460    -0.2770    -1.2640 ha         1 415       0.111500
     44 H21        -10.7090     0.1080     1.0010 ha         1 415       0.114000
     45 H22         -9.1980     0.4520     2.9540 ha         1 415       0.111500
     46 H23         -6.7360     0.4120     2.6440 ha         1 415       0.126500
@<TRIPOS>BOND
     1     1     2 1   
     2     1    25 1   
     3     1    26 1   
     4     1    27 1   
     5     2     3 1   
     6     3     4 ar  
     7     3     5 ar  
     8     4     9 ar  
     9     4    28 1   
    10     5     6 ar  
    11     5    29 1   
    12     6     7 1   
    13     6     8 ar  
    14     8     9 ar  
    15     8    30 1   
    16     9    10 1   
    17    10    11 1   
    18    10    31 1   
    19    10    32 1   
    20    11    12 1   
    21    11    33 1   
    22    12    13 1   
    23    12    34 1   
    24    12    35 1   
    25    13    14 1   
    26    13    36 1   
    27    13    37 1   
    28    14    15 1   
    29    14    38 1   
    30    14    39 1   
    31    15    16 1   
    32    15    40 1   
    33    16    17 2   
    34    16    18 1   
    35    18    19 1   
    36    18    41 1   
    37    19    20 ar  
    38    19    24 ar  
    39    20    21 ar  
    40    20    42 1   
    41    21    22 ar  
    42    21    43 1   
    43    22    23 ar  
    44    22    44 1   
    45    23    24 ar  
    46    23    45 1   
    47    24    46 1   
@<TRIPOS>SUBSTRUCTURE
     1 415         1 TEMP              0 ****  ****    0 ROOT
