@<TRIPOS>MOLECULE
415
   46    47     1     0     0
SMALL
bcc


@<TRIPOS>ATOM
      1 CAA          8.4770     1.9780     0.1680 c3         1 415       0.124700
      2 OAS          7.2410     1.9790    -0.5210 os         1 415      -0.317900
      3 CAX          6.2920     1.1060    -0.1440 ca         1 415       0.150100
      4 CAK          5.0850     1.1670    -0.8470 ca         1 415      -0.164000
      5 CAJ          6.4510     0.1820     0.8830 ca         1 415      -0.213000
      6 CAU          5.3850    -0.6590     1.1790 ca         1 415       0.062400
      7 CLC          5.5830    -1.8100     2.4640 cl         1 415      -0.116400
      8 CAI          4.1860    -0.6130     0.4980 ca         1 415      -0.137000
      9 CAV          4.0410     0.3140    -0.5360 ca         1 415      -0.047300
     10 CAO          2.7600     0.3620    -1.3270 c3         1 415       0.205100
     11 NAP          1.5970     0.2870    -0.4680 n7         1 415      -0.809200
     12 CAM          0.3520     0.2290    -1.2080 c3         1 415       0.163800
     13 CAL         -0.8360     0.1840    -0.2610 c3         1 415      -0.100400
     14 CAN         -2.1540     0.1050    -1.0150 c3         1 415       0.118000
     15 NAQ         -3.2590     0.0880    -0.0820 ns         1 415      -0.592900
     16 CAT         -4.5290    -0.1460    -0.4830 c          1 415       0.796100
     17 OAB         -4.8110    -0.4510    -1.6340 o          1 415      -0.624100
     18 NAR         -5.4550    -0.0260     0.5250 ns         1 415      -0.490100
     19 CAW         -6.8390    -0.1680     0.4560 ca         1 415       0.092600
     20 CAG         -7.5320    -0.7010    -0.6340 ca         1 415      -0.173500
     21 CAE         -8.9170    -0.8050    -0.5860 ca         1 415      -0.099500
     22 CAD         -9.6370    -0.3980     0.5260 ca         1 415      -0.159000
     23 CAF         -8.9470     0.1240     1.6130 ca         1 415      -0.099500
     24 CAH         -7.5680     0.2400     1.5790 ca         1 415      -0.173500
     25 H1           8.3520     2.2050     1.2300 h1         1 415       0.043367
     26 H2           8.9980     1.0220     0.0700 h1         1 415       0.043367
     27 H3           9.0840     2.7560    -0.2870 h1         1 415       0.043367
     28 H4           4.9750     1.8950    -1.6410 ha         1 415       0.146000
     29 H5           7.3690     0.1060     1.4490 ha         1 415       0.151000
     30 H6           3.3720    -1.2760     0.7570 ha         1 415       0.165000
     31 H7           2.7660     1.2530    -1.9720 h1         1 415       0.041700
     32 H8           2.7350    -0.4990    -2.0030 h1         1 415       0.041700
     33 H9           1.5860     1.1000     0.1390 hn         1 415       0.356800
     34 H11          0.2330     1.0740    -1.9050 h1         1 415       0.034700
     35 H12          0.3620    -0.6770    -1.8230 h1         1 415       0.034700
     36 H13         -0.7390    -0.6770     0.4050 hc         1 415       0.051200
     37 H14         -0.8290     1.0810     0.3690 hc         1 415       0.051200
     38 H15         -2.2380     0.9500    -1.7070 h1         1 415       0.052700
     39 H16         -2.1740    -0.8040    -1.6210 h1         1 415       0.052700
     40 H17         -3.0870     0.4520     0.8420 hn         1 415       0.307500
     41 H18         -5.1120     0.2800     1.4230 hn         1 415       0.308500
     42 H19         -7.0070    -1.0380    -1.5120 ha         1 415       0.144500
     43 H20         -9.4340    -1.2200    -1.4420 ha         1 415       0.129500
     44 H21        -10.7150    -0.4870     0.5490 ha         1 415       0.132000
     45 H22         -9.4820     0.4490     2.4960 ha         1 415       0.129500
     46 H23         -7.0470     0.6550     2.4340 ha         1 415       0.144500
@<TRIPOS>BOND
     1     1     2 1   
     2     1    25 1   
     3     1    26 1   
     4     1    27 1   
     5     2     3 1   
     6     3     4 ar  
     7     3     5 ar  
     8     4     9 ar  
     9     4    28 1   
    10     5     6 ar  
    11     5    29 1   
    12     6     7 1   
    13     6     8 ar  
    14     8     9 ar  
    15     8    30 1   
    16     9    10 1   
    17    10    11 1   
    18    10    31 1   
    19    10    32 1   
    20    11    12 1   
    21    11    33 1   
    22    12    13 1   
    23    12    34 1   
    24    12    35 1   
    25    13    14 1   
    26    13    36 1   
    27    13    37 1   
    28    14    15 1   
    29    14    38 1   
    30    14    39 1   
    31    15    16 1   
    32    15    40 1   
    33    16    17 2   
    34    16    18 1   
    35    18    19 1   
    36    18    41 1   
    37    19    20 ar  
    38    19    24 ar  
    39    20    21 ar  
    40    20    42 1   
    41    21    22 ar  
    42    21    43 1   
    43    22    23 ar  
    44    22    44 1   
    45    23    24 ar  
    46    23    45 1   
    47    24    46 1   
@<TRIPOS>SUBSTRUCTURE
     1 415         1 TEMP              0 ****  ****    0 ROOT
