@<TRIPOS>MOLECULE
416
   35    36     1     0     0
SMALL
No Charge or Current Charge


@<TRIPOS>ATOM
      1 C1           0.9640    -1.7120     0.2870 ca         1 416      -0.076000
      2 F1          -2.4700     2.8230     0.4480 f          1 416      -0.118000
      3 O1          -1.0670     1.0050    -1.1560 os         1 416      -0.342100
      4 Cl1          3.5350    -2.1830     0.8650 cl         1 416      -0.245000
      5 C2           1.2970     0.8660    -0.7450 ca         1 416      -0.140000
      6 F2          -1.8270     1.1220     1.6450 f          1 416      -0.118000
      7 O2          -4.1500    -2.6050    -0.3110 o          1 416      -0.705500
      8 C3          -0.1510    -0.9990    -0.1690 ca         1 416      -0.084800
      9 F3          -3.9210     1.3450     1.1040 f          1 416      -0.118000
     10 O3          -4.9240    -0.6800    -0.8650 o          1 416      -0.705500
     11 C4           2.2500    -1.1420     0.2420 ca         1 416       0.097000
     12 C5           2.4560     0.1770    -0.2830 ca         1 416      -0.043300
     13 C6           0.0200     0.2940    -0.6780 ca         1 416       0.137100
     14 C7          -1.5120    -1.5750    -0.1750 ce         1 416      -0.165200
     15 C8           3.8670     0.8640    -0.3650 c3         1 416       0.012300
     16 C9           3.8060     2.2990    -0.9750 c3         1 416      -0.084100
     17 C10          4.4820     1.0290     1.0540 c3         1 416      -0.084100
     18 C11          4.8230     0.0500    -1.2840 c3         1 416      -0.084100
     19 C12         -2.6220    -0.8300    -0.4430 cf         1 416      -0.188400
     20 C13         -4.0040    -1.4130    -0.5360 c          1 416       0.721200
     21 C14         -2.4080     0.6840    -0.6770 c6         1 416       0.156500
     22 C15         -2.6580     1.4960     0.6440 c3         1 416       0.268000
     23 H1           0.8370    -2.7180     0.6780 ha         1 416       0.128000
     24 H2           1.3480     1.8640    -1.1630 ha         1 416       0.124000
     25 H7          -1.5950    -2.6480     0.0110 ha         1 416       0.212000
     26 H9           3.1760     2.9620    -0.3700 hc         1 416       0.034033
     27 H9A          4.8040     2.7530    -1.0170 hc         1 416       0.034033
     28 H9B          3.4180     2.2800    -2.0000 hc         1 416       0.034033
     29 H10          4.7470     0.0760     1.5170 hc         1 416       0.034033
     30 H10A         5.4030     1.6240     1.0150 hc         1 416       0.034033
     31 H10B         3.7790     1.5440     1.7210 hc         1 416       0.034033
     32 H11          4.3600    -0.1240    -2.2630 hc         1 416       0.034033
     33 H11A         5.7630     0.5910    -1.4480 hc         1 416       0.034033
     34 H11B         5.0920    -0.9210    -0.8620 hc         1 416       0.034033
     35 H14         -3.1290     1.0500    -1.4220 h1         1 416       0.140700
@<TRIPOS>BOND
     1     1     8 ar  
     2     1    11 ar  
     3     1    23 1   
     4     2    22 1   
     5     3    13 1   
     6     3    21 1   
     7     4    11 1   
     8     5    12 ar  
     9     5    13 ar  
    10     5    24 1   
    11     6    22 1   
    12     7    20 1   
    13     8    13 ar  
    14     8    14 1   
    15     9    22 1   
    16    10    20 1   
    17    11    12 ar  
    18    12    15 1   
    19    14    19 2   
    20    14    25 1   
    21    15    16 1   
    22    15    17 1   
    23    15    18 1   
    24    16    26 1   
    25    16    27 1   
    26    16    28 1   
    27    17    29 1   
    28    17    30 1   
    29    17    31 1   
    30    18    32 1   
    31    18    33 1   
    32    18    34 1   
    33    19    20 1   
    34    19    21 1   
    35    21    22 1   
    36    21    35 1   
@<TRIPOS>SUBSTRUCTURE
     1 416         1 TEMP              0 ****  ****    0 ROOT
