@<TRIPOS>MOLECULE
416
   35    36     1     0     0
SMALL
abcg2


@<TRIPOS>ATOM
      1 C1           0.9710    -1.6890     0.3260 ca         1 416      -0.076000
      2 F1          -2.4610     2.7720     0.4590 f          1 416      -0.118000
      3 O1          -1.0060     1.0050    -1.0850 os         1 416      -0.342100
      4 CL1          3.5170    -2.1300     0.8760 cl         1 416      -0.245000
      5 C2           1.2980     0.8470    -0.6720 ca         1 416      -0.140000
      6 F2          -1.7140     1.1210     1.6160 f          1 416      -0.118000
      7 O2          -4.1210    -2.5320    -0.2720 o          1 416      -0.705500
      8 C3          -0.1510    -0.9990    -0.1090 ca         1 416      -0.084800
      9 F3          -3.8050     1.2190     1.1130 f          1 416      -0.118000
     10 O3          -4.7620    -0.5830    -1.1530 o          1 416      -0.705500
     11 C4           2.2320    -1.1160     0.2710 ca         1 416       0.097000
     12 C5           2.4450     0.1720    -0.2430 ca         1 416      -0.043300
     13 C6           0.0360     0.2890    -0.6000 ca         1 416       0.137100
     14 C7          -1.4840    -1.5650    -0.1540 ce         1 416      -0.165200
     15 C8           3.8130     0.8540    -0.3630 c3         1 416       0.012300
     16 C9           3.6950     2.2540    -0.9790 c3         1 416      -0.084100
     17 C10          4.4500     1.0360     1.0240 c3         1 416      -0.084100
     18 C11          4.7320     0.0450    -1.2910 c3         1 416      -0.084100
     19 C12         -2.5380    -0.7980    -0.4450 cf         1 416      -0.188400
     20 C13         -3.9360    -1.3570    -0.6340 c          1 416       0.721200
     21 C14         -2.3120     0.6750    -0.6420 c6         1 416       0.156500
     22 C15         -2.5770     1.4530     0.6460 c3         1 416       0.268000
     23 H1           0.8540    -2.6950     0.7090 ha         1 416       0.128000
     24 H2           1.3770     1.8440    -1.0790 ha         1 416       0.124000
     25 H7          -1.6070    -2.6300     0.0020 ha         1 416       0.212000
     26 H9           3.0930     2.9300    -0.3690 hc         1 416       0.034033
     27 H9A          4.6920     2.6880    -1.0550 hc         1 416       0.034033
     28 H9B          3.2750     2.2300    -1.9860 hc         1 416       0.034033
     29 H10          4.6740     0.0950     1.5210 hc         1 416       0.034033
     30 H10A         5.3910     1.5820     0.9260 hc         1 416       0.034033
     31 H10B         3.7950     1.6160     1.6760 hc         1 416       0.034033
     32 H11          4.2680    -0.0920    -2.2690 hc         1 416       0.034033
     33 H11A         5.6670     0.5870    -1.4420 hc         1 416       0.034033
     34 H11B         4.9840    -0.9360    -0.8970 hc         1 416       0.034033
     35 H14         -2.9970     1.0560    -1.4020 h1         1 416       0.140700
@<TRIPOS>BOND
     1     1     8 ar  
     2     1    11 ar  
     3     1    23 1   
     4     2    22 1   
     5     3    13 1   
     6     3    21 1   
     7     4    11 1   
     8     5    12 ar  
     9     5    13 ar  
    10     5    24 1   
    11     6    22 1   
    12     7    20 1   
    13     8    13 ar  
    14     8    14 1   
    15     9    22 1   
    16    10    20 1   
    17    11    12 ar  
    18    12    15 1   
    19    14    19 2   
    20    14    25 1   
    21    15    16 1   
    22    15    17 1   
    23    15    18 1   
    24    16    26 1   
    25    16    27 1   
    26    16    28 1   
    27    17    29 1   
    28    17    30 1   
    29    17    31 1   
    30    18    32 1   
    31    18    33 1   
    32    18    34 1   
    33    19    20 1   
    34    19    21 1   
    35    21    22 1   
    36    21    35 1   
@<TRIPOS>SUBSTRUCTURE
     1 416         1 TEMP              0 ****  ****    0 ROOT
