@<TRIPOS>MOLECULE
417
   48    51     1     0     0
SMALL
No Charge or Current Charge


@<TRIPOS>ATOM
      1 C1          -7.5520    -0.0000     2.2220 ca         1 417      -0.172000
      2 C2          -6.2300     0.0090     1.7490 ca         1 417       0.197000
      3 C3          -5.2320    -0.7790     2.3730 ca         1 417      -0.080300
      4 C4          -5.5910    -1.5730     3.4870 ca         1 417      -0.105000
      5 C5          -6.9140    -1.5820     3.9580 ca         1 417       0.117000
      6 C6          -7.8940    -0.7960     3.3250 ca         1 417       0.160000
      7 C9          -3.7730    -0.7760     1.8660 c6         1 417      -0.008400
      8 C10         -2.8190    -0.1710     2.9250 c6         1 417      -0.071400
      9 C11         -1.3600    -0.1170     2.4130 c6         1 417      -0.083400
     10 C12         -0.8150    -1.5190     1.9830 c6         1 417       0.197500
     11 C13         -1.8050    -2.1470     0.9480 c6         1 417      -0.114400
     12 C14         -3.2650    -2.1920     1.4660 c6         1 417       0.165500
     13 N21          0.5910    -1.4230     1.4420 n3         1 417      -0.727600
     14 C22          1.1590    -2.7500     0.9980 c6         1 417       0.143800
     15 C23          2.5470    -2.6190     0.3010 c6         1 417       0.077600
     16 N24          3.4420    -1.7440     1.0810 na         1 417      -0.330000
     17 C25          3.0040    -0.8610     2.0270 cc         1 417       0.400800
     18 C26          1.5400    -0.7490     2.4210 c6         1 417       0.136500
     19 C33          4.8090    -1.5870     0.9890 cc         1 417       0.256800
     20 N34          5.1760    -0.6580     1.8620 nd         1 417      -0.290000
     21 N35          4.0480    -0.2070     2.5130 nd         1 417      -0.355000
     22 F36         -7.2380    -2.3490     5.0240 f          1 417      -0.159000
     23 F37         -5.9320     0.7910     0.6870 f          1 417      -0.173000
     24 N38         -4.1360    -2.8080     0.4400 n8         1 417      -0.988200
     25 C39          5.7310    -2.3500     0.0500 c3         1 417       0.306700
     26 F40          7.0140    -1.9230     0.1300 f          1 417      -0.098667
     27 F41          5.7380    -3.6740     0.3260 f          1 417      -0.098667
     28 F42          5.3510    -2.2130    -1.2420 f          1 417      -0.098667
     29 F43         -9.1700    -0.7990     3.7750 f          1 417      -0.155000
     30 H1          -8.3080     0.6080     1.7340 ha         1 417       0.153000
     31 H4          -4.8490    -2.1870     3.9900 ha         1 417       0.134000
     32 H9          -3.7030    -0.1420     0.9720 hc         1 417       0.068700
     33 H101        -2.8580    -0.7590     3.8530 hc         1 417       0.049700
     34 H102        -3.1530     0.8430     3.1860 hc         1 417       0.049700
     35 H111        -1.2900     0.5820     1.5680 hc         1 417       0.054200
     36 H112        -0.7510     0.3070     3.2210 hc         1 417       0.054200
     37 H12         -0.8120    -2.1630     2.8750 h1         1 417       0.028700
     38 H131        -1.7550    -1.5830     0.0060 hc         1 417       0.048700
     39 H132        -1.5140    -3.1780     0.7170 hc         1 417       0.048700
     40 H14         -3.2940    -2.8450     2.3520 h1         1 417       0.060700
     41 H221         0.5050    -3.2540     0.2750 h1         1 417       0.053700
     42 H222         1.2590    -3.4230     1.8630 h1         1 417       0.053700
     43 H231         2.9970    -3.6140     0.1800 h1         1 417       0.076700
     44 H232         2.4100    -2.1820    -0.6980 h1         1 417       0.076700
     45 H261         1.4220    -1.1860     3.4230 h1         1 417       0.070700
     46 H262         1.3030     0.3200     2.5110 h1         1 417       0.070700
     47 H381        -4.0910    -2.2410    -0.4140 hn         1 417       0.398000
     48 H382        -3.7280    -3.7050     0.1550 hn         1 417       0.398000
@<TRIPOS>BOND
     1     1     2 ar  
     2     1     6 ar  
     3     1    30 1   
     4     2     3 ar  
     5     2    23 1   
     6     3     4 ar  
     7     3     7 1   
     8     4     5 ar  
     9     4    31 1   
    10     5     6 ar  
    11     5    22 1   
    12     6    29 1   
    13     7     8 1   
    14     7    12 1   
    15     7    32 1   
    16     8     9 1   
    17     8    33 1   
    18     8    34 1   
    19     9    10 1   
    20     9    35 1   
    21     9    36 1   
    22    10    11 1   
    23    10    13 1   
    24    10    37 1   
    25    11    12 1   
    26    11    38 1   
    27    11    39 1   
    28    12    24 1   
    29    12    40 1   
    30    13    14 1   
    31    13    18 1   
    32    14    15 1   
    33    14    41 1   
    34    14    42 1   
    35    15    16 1   
    36    15    43 1   
    37    15    44 1   
    38    16    17 1   
    39    16    19 1   
    40    17    18 1   
    41    17    21 2   
    42    18    45 1   
    43    18    46 1   
    44    19    20 2   
    45    19    25 1   
    46    20    21 1   
    47    24    47 1   
    48    24    48 1   
    49    25    26 1   
    50    25    27 1   
    51    25    28 1   
@<TRIPOS>SUBSTRUCTURE
     1 417         1 TEMP              0 ****  ****    0 ROOT
