@<TRIPOS>MOLECULE
417
   48    51     1     0     0
SMALL
abcg2


@<TRIPOS>ATOM
      1 C1          -7.4440    -0.2420     2.0050 ca         1 417      -0.172000
      2 C2          -6.1140    -0.1900     1.6270 ca         1 417       0.197000
      3 C3          -5.0900    -0.7770     2.3520 ca         1 417      -0.080300
      4 C4          -5.4600    -1.4630     3.5080 ca         1 417      -0.105000
      5 C5          -6.7780    -1.5350     3.9050 ca         1 417       0.117000
      6 C6          -7.7680    -0.9220     3.1580 ca         1 417       0.160000
      7 C9          -3.6500    -0.7100     1.9130 c6         1 417      -0.008400
      8 C10         -2.7210    -0.2800     3.0490 c6         1 417      -0.071400
      9 C11         -1.2620    -0.2100     2.6150 c6         1 417      -0.083400
     10 C12         -0.7880    -1.5560     2.0700 c6         1 417       0.197500
     11 C13         -1.7150    -1.9630     0.9230 c6         1 417      -0.114400
     12 C14         -3.1870    -2.0510     1.3300 c6         1 417       0.165500
     13 N21          0.6020    -1.5230     1.5990 n3         1 417      -0.727600
     14 C22          1.1450    -2.8550     1.3840 c6         1 417       0.143800
     15 C23          2.3640    -2.7820     0.4850 c6         1 417       0.077600
     16 N24          3.2680    -1.7850     1.0380 na         1 417      -0.330000
     17 C25          2.8880    -0.8440     1.9240 cc         1 417       0.400800
     18 C26          1.5010    -0.7760     2.4610 c6         1 417       0.136500
     19 C33          4.5760    -1.5220     0.8130 cc         1 417       0.256800
     20 N34          4.9640    -0.5020     1.5180 nd         1 417      -0.290000
     21 N35          3.8970    -0.0680     2.2200 nd         1 417      -0.355000
     22 F36         -7.1130    -2.1960     5.0190 f          1 417      -0.159000
     23 F37         -5.8240     0.4740     0.4970 f          1 417      -0.173000
     24 N38         -4.0670    -2.4470     0.2450 n8         1 417      -0.988200
     25 C39          5.4460    -2.3020    -0.1070 c3         1 417       0.306700
     26 F40          6.6620    -1.7770    -0.1640 f          1 417      -0.098667
     27 F41          5.5630    -3.5750     0.2920 f          1 417      -0.098667
     28 F42          4.9440    -2.3300    -1.3470 f          1 417      -0.098667
     29 F43         -9.0390    -0.9930     3.5620 f          1 417      -0.155000
     30 H1          -8.2120     0.2360     1.4100 ha         1 417       0.153000
     31 H4          -4.7130    -1.9590     4.1150 ha         1 417       0.134000
     32 H9          -3.5590     0.0370     1.1180 hc         1 417       0.068700
     33 H101        -2.8010    -0.9820     3.8850 hc         1 417       0.049700
     34 H102        -3.0340     0.6940     3.4320 hc         1 417       0.049700
     35 H111        -1.1310     0.5620     1.8490 hc         1 417       0.054200
     36 H112        -0.6750     0.0950     3.4830 hc         1 417       0.054200
     37 H12         -0.8870    -2.2920     2.8890 h1         1 417       0.028700
     38 H131        -1.6080    -1.2280     0.1170 hc         1 417       0.048700
     39 H132        -1.4290    -2.9320     0.5050 hc         1 417       0.048700
     40 H14         -3.2840    -2.8110     2.1160 h1         1 417       0.060700
     41 H221         0.4160    -3.4880     0.8850 h1         1 417       0.053700
     42 H222         1.4080    -3.3510     2.3320 h1         1 417       0.053700
     43 H231         2.8620    -3.7480     0.4420 h1         1 417       0.076700
     44 H232         2.0800    -2.4840    -0.5240 h1         1 417       0.076700
     45 H261         1.5090    -1.1500     3.4980 h1         1 417       0.070700
     46 H262         1.2160     0.2740     2.5030 h1         1 417       0.070700
     47 H381        -3.9700    -1.7970    -0.5270 hn         1 417       0.398000
     48 H382        -3.7750    -3.3470    -0.1170 hn         1 417       0.398000
@<TRIPOS>BOND
     1     1     2 ar  
     2     1     6 ar  
     3     1    30 1   
     4     2     3 ar  
     5     2    23 1   
     6     3     4 ar  
     7     3     7 1   
     8     4     5 ar  
     9     4    31 1   
    10     5     6 ar  
    11     5    22 1   
    12     6    29 1   
    13     7     8 1   
    14     7    12 1   
    15     7    32 1   
    16     8     9 1   
    17     8    33 1   
    18     8    34 1   
    19     9    10 1   
    20     9    35 1   
    21     9    36 1   
    22    10    11 1   
    23    10    13 1   
    24    10    37 1   
    25    11    12 1   
    26    11    38 1   
    27    11    39 1   
    28    12    24 1   
    29    12    40 1   
    30    13    14 1   
    31    13    18 1   
    32    14    15 1   
    33    14    41 1   
    34    14    42 1   
    35    15    16 1   
    36    15    43 1   
    37    15    44 1   
    38    16    17 1   
    39    16    19 1   
    40    17    18 1   
    41    17    21 2   
    42    18    45 1   
    43    18    46 1   
    44    19    20 2   
    45    19    25 1   
    46    20    21 1   
    47    24    47 1   
    48    24    48 1   
    49    25    26 1   
    50    25    27 1   
    51    25    28 1   
@<TRIPOS>SUBSTRUCTURE
     1 417         1 TEMP              0 ****  ****    0 ROOT
