@<TRIPOS>MOLECULE
418
   82    84     1     0     0
SMALL
abcg2


@<TRIPOS>ATOM
      1 O6          -0.7840    12.5850    -1.6450 o          1 418      -0.694500
      2 C24         -1.7640    11.8480    -1.8150 c          1 418       0.679000
      3 O7          -2.2210    11.3800    -2.8710 o          1 418      -0.694500
      4 C8          -2.5880    11.5310    -0.5590 c          1 418       0.499100
      5 O5          -3.6920    12.0360    -0.4110 o          1 418      -0.662100
      6 N4          -2.0410    10.6810     0.3530 n          1 418      -0.033000
      7 C2          -2.7280    10.3350     1.5430 ca         1 418       0.040000
      8 C3          -3.2780    11.3020     2.3790 ca         1 418      -0.106500
      9 C4          -3.9620    10.9210     3.5210 ca         1 418      -0.103000
     10 C5          -4.1120     9.5800     3.8650 ca         1 418      -0.157300
     11 C6          -3.5470     8.6240     3.0290 ca         1 418      -0.103000
     12 C1          -2.8660     8.9940     1.8800 ca         1 418      -0.106500
     13 C7          -4.8150     9.1770     5.1280 c3         1 418      -0.029100
     14 C9          -3.8540     9.1300     6.3380 c3         1 418       0.046700
     15 N1          -2.7140     8.2970     6.0810 ns         1 418      -0.490900
     16 C10         -1.5060     8.8130     5.7610 c          1 418       0.643100
     17 O4          -1.1830     9.9730     5.8910 o          1 418      -0.508000
     18 O23         -0.6960     7.8550     5.3060 os         1 418      -0.471100
     19 C40          0.6220     8.2540     4.9030 c3         1 418       0.202800
     20 C41          1.3290     7.0150     4.4670 c2         1 418      -0.234200
     21 C42          1.8050     6.8380     3.2410 c2         1 418      -0.292000
     22 C11         -4.6240     8.6010     7.5440 c          1 418       0.590100
     23 O8          -4.7020     7.4040     7.7740 o          1 418      -0.618100
     24 N2          -5.2370     9.5420     8.2710 ns         1 418      -0.512900
     25 C12         -6.1920     9.2530     9.3230 c3         1 418       0.113000
     26 C13         -7.5410     8.7610     8.8040 c3         1 418      -0.098400
     27 C15         -8.1230     9.6720     7.7320 c3         1 418      -0.084400
     28 C14         -9.5010     9.2260     7.2940 c3         1 418       0.169600
     29 O1          -9.8470    10.0050     6.1560 os         1 418      -0.322100
     30 C32        -11.0240     9.8410     5.5560 ca         1 418       0.258100
     31 C33        -12.0130     9.0060     6.0620 ca         1 418      -0.286000
     32 C34        -13.2390     8.9230     5.4130 ca         1 418      -0.003000
     33 C35        -13.5120     9.6580     4.2800 ca         1 418      -0.230000
     34 C36        -12.5280    10.4970     3.7550 ca         1 418       0.255100
     35 O13        -12.8430    11.1860     2.6620 oh         1 418      -0.555100
     36 C37        -11.2540    10.5820     4.3670 ca         1 418      -0.300600
     37 C38        -10.2400    11.4130     3.6990 c          1 418       0.632700
     38 O11        -10.5190    12.1560     2.7640 o          1 418      -0.554000
     39 O12         -9.0090    11.2870     4.1310 os         1 418      -0.398100
     40 C39         -7.9870    12.0390     3.4750 c3         1 418       0.146900
     41 C26         -0.8010    10.0350     0.0910 ca         1 418       0.005000
     42 C27         -0.7600     9.1010    -0.9380 ca         1 418      -0.121000
     43 C28          0.4100     8.4140    -1.2250 ca         1 418      -0.139000
     44 C29          1.5360     8.6380    -0.4480 ca         1 418      -0.157000
     45 C30          1.4780     9.5450     0.6010 ca         1 418      -0.107000
     46 C25          0.3230    10.2700     0.8870 ca         1 418      -0.116600
     47 C31          0.3850    11.3170     1.9970 c          1 418       0.717600
     48 O9          -0.3450    12.3130     1.8790 o          1 418      -0.717000
     49 O10          1.2110    11.0940     2.9050 o          1 418      -0.717000
     50 H3          -3.1560    12.3500     2.1530 ha         1 418       0.135000
     51 H4          -4.3830    11.6880     4.1620 ha         1 418       0.081500
     52 H6          -3.6540     7.5720     3.2640 ha         1 418       0.081500
     53 H1          -2.4440     8.2290     1.2400 ha         1 418       0.135000
     54 H71         -5.6230     9.8780     5.3520 hc         1 418       0.035700
     55 H72         -5.2720     8.1910     5.0030 hc         1 418       0.035700
     56 H9          -3.4900    10.1390     6.5380 h1         1 418       0.095700
     57 HN1         -2.8860     7.3240     5.8780 hn         1 418       0.325500
     58 H401         0.5760     8.9950     4.1010 h1         1 418       0.086700
     59 H402         1.1450     8.7060     5.7510 h1         1 418       0.086700
     60 H41          1.4700     6.2450     5.2200 ha         1 418       0.145000
     61 H421         2.3410     5.9390     2.9660 ha         1 418       0.171500
     62 H422         1.6770     7.5870     2.4690 ha         1 418       0.171500
     63 HN2         -5.1110    10.5060     8.0080 hn         1 418       0.320500
     64 H121        -6.3250    10.1770     9.8850 h1         1 418       0.044700
     65 H122        -5.7660     8.5210    10.0100 h1         1 418       0.044700
     66 H131        -8.2210     8.6920     9.6570 hc         1 418       0.048200
     67 H132        -7.4370     7.7470     8.4080 hc         1 418       0.048200
     68 H151        -7.4640     9.6770     6.8610 hc         1 418       0.062700
     69 H152        -8.1720    10.7020     8.0990 hc         1 418       0.062700
     70 H141       -10.2270     9.3710     8.1000 h1         1 418       0.033700
     71 H142        -9.5000     8.1620     7.0320 h1         1 418       0.033700
     72 H33        -11.8540     8.4260     6.9590 ha         1 418       0.117000
     73 H34        -14.0010     8.2710     5.8180 ha         1 418       0.104000
     74 H35        -14.4760     9.6010     3.7930 ha         1 418       0.127000
     75 H13        -12.0710    11.7550     2.4340 ho         1 418       0.526000
     76 H391        -8.1370    13.1110     3.6010 h1         1 418       0.063033
     77 H392        -7.9340    11.8030     2.4130 h1         1 418       0.063033
     78 H393        -7.0570    11.7480     3.9560 h1         1 418       0.063033
     79 H27         -1.6550     8.9110    -1.5170 ha         1 418       0.116000
     80 H28          0.4320     7.6990    -2.0370 ha         1 418       0.077000
     81 H29          2.4560     8.1040    -0.6520 ha         1 418       0.070000
     82 H30          2.3550     9.7080     1.2120 ha         1 418       0.112000
@<TRIPOS>BOND
     1     1     2 1   
     2     2     3 1   
     3     2     4 1   
     4     4     5 2   
     5     4     6 1   
     6     6     7 1   
     7     6    41 1   
     8     7     8 ar  
     9     7    12 ar  
    10     8     9 ar  
    11     8    50 1   
    12     9    10 ar  
    13     9    51 1   
    14    10    11 ar  
    15    10    13 1   
    16    11    12 ar  
    17    11    52 1   
    18    12    53 1   
    19    13    14 1   
    20    13    54 1   
    21    13    55 1   
    22    14    15 1   
    23    14    22 1   
    24    14    56 1   
    25    15    16 1   
    26    15    57 1   
    27    16    17 2   
    28    16    18 1   
    29    18    19 1   
    30    19    20 1   
    31    19    58 1   
    32    19    59 1   
    33    20    21 2   
    34    20    60 1   
    35    21    61 1   
    36    21    62 1   
    37    22    23 2   
    38    22    24 1   
    39    24    25 1   
    40    24    63 1   
    41    25    26 1   
    42    25    64 1   
    43    25    65 1   
    44    26    27 1   
    45    26    66 1   
    46    26    67 1   
    47    27    28 1   
    48    27    68 1   
    49    27    69 1   
    50    28    29 1   
    51    28    70 1   
    52    28    71 1   
    53    29    30 1   
    54    30    31 ar  
    55    30    36 ar  
    56    31    32 ar  
    57    31    72 1   
    58    32    33 ar  
    59    32    73 1   
    60    33    34 ar  
    61    33    74 1   
    62    34    35 1   
    63    34    36 ar  
    64    35    75 1   
    65    36    37 1   
    66    37    38 2   
    67    37    39 1   
    68    39    40 1   
    69    40    76 1   
    70    40    77 1   
    71    40    78 1   
    72    41    42 ar  
    73    41    46 ar  
    74    42    43 ar  
    75    42    79 1   
    76    43    44 ar  
    77    43    80 1   
    78    44    45 ar  
    79    44    81 1   
    80    45    46 ar  
    81    45    82 1   
    82    46    47 1   
    83    47    48 1   
    84    47    49 1   
@<TRIPOS>SUBSTRUCTURE
     1 418         1 TEMP              0 ****  ****    0 ROOT
