@<TRIPOS>MOLECULE
418
   82    84     1     0     0
SMALL
No Charge or Current Charge


@<TRIPOS>ATOM
      1 O6           0.4950    13.0850    -0.9180 o          1 418      -0.694500
      2 C24         -0.7100    13.3070    -1.0190 c          1 418       0.679000
      3 O7          -1.2130    13.8320    -2.0110 o          1 418      -0.694500
      4 C8          -1.6660    12.9910     0.2550 c          1 418       0.499100
      5 O5          -2.2370    13.9140     0.8550 o          1 418      -0.662100
      6 N4          -1.8220    11.6220     0.6300 n          1 418      -0.033000
      7 C2          -2.4620    11.2000     1.8730 ca         1 418       0.040000
      8 C3          -2.4270    11.9990     3.0410 ca         1 418      -0.106500
      9 C4          -3.0820    11.5950     4.2170 ca         1 418      -0.103000
     10 C5          -3.7770    10.3760     4.2640 ca         1 418      -0.157300
     11 C6          -3.8020     9.5600     3.1200 ca         1 418      -0.103000
     12 C1          -3.1530     9.9650     1.9410 ca         1 418      -0.106500
     13 C7          -4.5310     9.9640     5.5260 c3         1 418      -0.029100
     14 C9          -3.6320     9.7190     6.7690 c3         1 418       0.046700
     15 N1          -2.6180     8.6740     6.5060 ns         1 418      -0.490900
     16 C10         -1.3230     8.9070     6.1390 c          1 418       0.643100
     17 O4          -0.8030    10.0070     6.0450 o          1 418      -0.508000
     18 O23         -0.6830     7.7110     6.0240 os         1 418      -0.471100
     19 C40          0.7100     7.7370     5.6780 c3         1 418       0.202800
     20 C41          1.1850     6.3000     5.6230 c2         1 418      -0.234200
     21 C42          1.1660     5.5130     4.5340 c2         1 418      -0.292000
     22 C11         -4.5010     9.3390     8.0030 c          1 418       0.590100
     23 O8          -4.5030     8.2210     8.5080 o          1 418      -0.618100
     24 N2          -5.2890    10.3590     8.4940 ns         1 418      -0.512900
     25 C12         -6.3200    10.2030     9.5240 c3         1 418       0.113000
     26 C13         -7.5560     9.4230     9.0180 c3         1 418      -0.098400
     27 C15         -8.1550     9.9810     7.7030 c3         1 418      -0.084400
     28 C14         -9.4060     9.2210     7.2260 c3         1 418       0.169600
     29 O1          -9.7150     9.7120     5.9130 os         1 418      -0.322100
     30 C32        -10.7350     9.1990     5.1410 ca         1 418       0.258100
     31 C33        -11.6920     8.3190     5.6910 ca         1 418      -0.286000
     32 C34        -12.7590     7.8510     4.9130 ca         1 418      -0.003000
     33 C35        -12.8810     8.2740     3.5840 ca         1 418      -0.230000
     34 C36        -11.9380     9.1470     3.0310 ca         1 418       0.255100
     35 O13        -12.1050     9.5420     1.7400 oh         1 418      -0.555100
     36 C37        -10.8430     9.6020     3.7910 ca         1 418      -0.300600
     37 C38         -9.8190    10.5010     3.1620 c          1 418       0.632700
     38 O11        -10.1080    11.2500     2.2350 o          1 418      -0.554000
     39 O12         -8.5280    10.2340     3.5350 os         1 418      -0.398100
     40 C39         -7.4690    10.9900     2.9190 c3         1 418       0.146900
     41 C26         -1.4370    10.5680    -0.2830 ca         1 418       0.005000
     42 C27         -1.9590    10.5860    -1.5960 ca         1 418      -0.121000
     43 C28         -1.6640     9.5580    -2.5040 ca         1 418      -0.139000
     44 C29         -0.8450     8.4930    -2.1110 ca         1 418      -0.157000
     45 C30         -0.3140     8.4600    -0.8130 ca         1 418      -0.107000
     46 C25         -0.5950     9.4900     0.1140 ca         1 418      -0.116600
     47 C31          0.0610     9.4340     1.4780 c          1 418       0.717600
     48 O9           0.6350    10.4320     1.8890 o          1 418      -0.717000
     49 O10          0.0930     8.3550     2.0530 o          1 418      -0.717000
     50 H3          -1.8770    12.9340     3.0590 ha         1 418       0.135000
     51 H4          -3.0480    12.2370     5.0930 ha         1 418       0.081500
     52 H6          -4.3390     8.6150     3.1340 ha         1 418       0.081500
     53 H1          -3.2210     9.3170     1.0710 ha         1 418       0.135000
     54 H71         -5.2630    10.7450     5.7640 hc         1 418       0.035700
     55 H72         -5.1170     9.0560     5.3370 hc         1 418       0.035700
     56 H9          -3.1190    10.6550     7.0240 h1         1 418       0.095700
     57 HN1         -2.8800     7.7020     6.6110 hn         1 418       0.325500
     58 H401         0.8630     8.2240     4.7040 h1         1 418       0.086700
     59 H402         1.2910     8.2940     6.4270 h1         1 418       0.086700
     60 H41          1.5620     5.9200     6.5740 ha         1 418       0.145000
     61 H421         1.5230     4.4820     4.5650 ha         1 418       0.171500
     62 H422         0.7900     5.8720     3.5740 ha         1 418       0.171500
     63 HN2         -5.2100    11.2590     8.0330 hn         1 418       0.320500
     64 H121        -6.6340    11.2040     9.8490 h1         1 418       0.044700
     65 H122        -5.8870     9.6890    10.3930 h1         1 418       0.044700
     66 H131        -8.3230     9.4350     9.8020 hc         1 418       0.048200
     67 H132        -7.2790     8.3730     8.8670 hc         1 418       0.048200
     68 H151        -7.4010     9.9270     6.9090 hc         1 418       0.062700
     69 H152        -8.4090    11.0400     7.8350 hc         1 418       0.062700
     70 H141       -10.2360     9.3980     7.9230 h1         1 418       0.033700
     71 H142        -9.1920     8.1450     7.1910 h1         1 418       0.033700
     72 H33        -11.6320     7.9970     6.7260 ha         1 418       0.117000
     73 H34        -13.4950     7.1740     5.3410 ha         1 418       0.104000
     74 H35        -13.7140     7.9240     2.9810 ha         1 418       0.127000
     75 H13        -11.4530    10.2710     1.5880 ho         1 418       0.526000
     76 H391        -7.5900    12.0640     3.1120 h1         1 418       0.063033
     77 H392        -7.4540    10.8310     1.8330 h1         1 418       0.063033
     78 H393        -6.4960    10.6810     3.3200 h1         1 418       0.063033
     79 H27         -2.6250    11.3870    -1.9100 ha         1 418       0.116000
     80 H28         -2.0800     9.5830    -3.5080 ha         1 418       0.077000
     81 H29         -0.6170     7.6940    -2.8130 ha         1 418       0.070000
     82 H30          0.3340     7.6350    -0.5250 ha         1 418       0.112000
@<TRIPOS>BOND
     1     1     2 1   
     2     2     3 1   
     3     2     4 1   
     4     4     5 2   
     5     4     6 1   
     6     6     7 1   
     7     6    41 1   
     8     7     8 ar  
     9     7    12 ar  
    10     8     9 ar  
    11     8    50 1   
    12     9    10 ar  
    13     9    51 1   
    14    10    11 ar  
    15    10    13 1   
    16    11    12 ar  
    17    11    52 1   
    18    12    53 1   
    19    13    14 1   
    20    13    54 1   
    21    13    55 1   
    22    14    15 1   
    23    14    22 1   
    24    14    56 1   
    25    15    16 1   
    26    15    57 1   
    27    16    17 2   
    28    16    18 1   
    29    18    19 1   
    30    19    20 1   
    31    19    58 1   
    32    19    59 1   
    33    20    21 2   
    34    20    60 1   
    35    21    61 1   
    36    21    62 1   
    37    22    23 2   
    38    22    24 1   
    39    24    25 1   
    40    24    63 1   
    41    25    26 1   
    42    25    64 1   
    43    25    65 1   
    44    26    27 1   
    45    26    66 1   
    46    26    67 1   
    47    27    28 1   
    48    27    68 1   
    49    27    69 1   
    50    28    29 1   
    51    28    70 1   
    52    28    71 1   
    53    29    30 1   
    54    30    31 ar  
    55    30    36 ar  
    56    31    32 ar  
    57    31    72 1   
    58    32    33 ar  
    59    32    73 1   
    60    33    34 ar  
    61    33    74 1   
    62    34    35 1   
    63    34    36 ar  
    64    35    75 1   
    65    36    37 1   
    66    37    38 2   
    67    37    39 1   
    68    39    40 1   
    69    40    76 1   
    70    40    77 1   
    71    40    78 1   
    72    41    42 ar  
    73    41    46 ar  
    74    42    43 ar  
    75    42    79 1   
    76    43    44 ar  
    77    43    80 1   
    78    44    45 ar  
    79    44    81 1   
    80    45    46 ar  
    81    45    82 1   
    82    46    47 1   
    83    47    48 1   
    84    47    49 1   
@<TRIPOS>SUBSTRUCTURE
     1 418         1 TEMP              0 ****  ****    0 ROOT
