@<TRIPOS>MOLECULE
419
   80    83     1     0     0
SMALL
No Charge or Current Charge


@<TRIPOS>ATOM
      1 O6          -5.7360    -0.1700    -0.8720 o          1 419      -0.583100
      2 C5          -4.9340     0.7490    -0.9960 c          1 419       0.594100
      3 C3          -5.3590     2.2550    -1.1450 c3         1 419       0.101500
      4 N2          -6.0990     2.5400    -2.4200 n7         1 419      -0.839400
      5 C1          -6.2760     3.9640    -2.7750 c3         1 419       0.143100
      6 C4          -6.1860     2.7050     0.0830 c3         1 419      -0.087100
      7 N7          -3.5710     0.5280    -1.0120 ns         1 419      -0.502900
      8 C8          -2.9070    -0.7950    -0.8830 c3         1 419       0.044700
      9 C9          -2.4580    -1.3650    -2.2870 c3         1 419      -0.048000
     10 C10         -1.2800    -0.5350    -2.8700 c3         1 419      -0.088767
     11 C11         -2.0080    -2.8470    -2.1730 c3         1 419      -0.088767
     12 C12         -3.6390    -1.3190    -3.3000 c3         1 419      -0.088767
     13 C13         -1.7360    -0.6570     0.1530 c          1 419       0.602100
     14 O14         -1.1640     0.4190     0.3110 o          1 419      -0.633100
     15 N15         -1.2950    -1.7920     0.8690 n          1 419      -0.400800
     16 C16         -0.0350    -1.7700     1.6540 c5         1 419       0.080700
     17 C19         -2.1880    -2.9200     1.2320 c5         1 419       0.101000
     18 C18         -1.6280    -3.3770     2.6060 c5         1 419      -0.088400
     19 C17         -0.1100    -3.0600     2.5200 c5         1 419      -0.078700
     20 C20          0.6180    -4.1480     1.6710 c5         1 419      -0.077400
     21 C21          1.8440    -3.3210     1.2210 c5         1 419      -0.089400
     22 C22          1.1180    -2.0790     0.6280 c5         1 419       0.100700
     23 N25          2.0700    -0.9690     0.7370 ns         1 419      -0.493900
     24 C26          2.9880    -0.7770    -0.2800 c          1 419       0.604100
     25 O27          3.0750    -1.5250    -1.2470 o          1 419      -0.610100
     26 C28          3.9230     0.4370    -0.0900 c3         1 419      -0.051100
     27 C29          3.2730     1.7940    -0.4180 ca         1 419      -0.078300
     28 C30          4.0700     2.9560    -0.3540 ca         1 419      -0.098000
     29 C31          3.5250     4.2180    -0.6470 ca         1 419      -0.109250
     30 C32          2.1760     4.3340    -1.0150 ca         1 419      -0.107500
     31 C33          1.3740     3.1840    -1.0920 ca         1 419      -0.109250
     32 C34          1.9160     1.9210    -0.7990 ca         1 419      -0.098000
     33 C35          4.5650     0.4060     1.3040 ca         1 419      -0.078300
     34 C36          5.7390    -0.3450     1.5130 ca         1 419      -0.098000
     35 C37          6.3310    -0.4010     2.7870 ca         1 419      -0.109250
     36 C38          5.7530     0.2910     3.8630 ca         1 419      -0.107500
     37 C39          4.5810     1.0390     3.6650 ca         1 419      -0.109250
     38 C40          3.9880     1.0960     2.3920 ca         1 419      -0.098000
     39 H3          -4.4290     2.8400    -1.1430 h1         1 419       0.020700
     40 HN2         -5.5870     2.0930    -3.1930 hn         1 419       0.417000
     41 H1          -6.7880     4.0570    -3.7430 h1         1 419       0.031033
     42 H1A         -6.8810     4.4920    -2.0270 h1         1 419       0.031033
     43 H1B         -5.3060     4.4720    -2.8550 h1         1 419       0.031033
     44 H4          -7.1610     2.2030     0.1030 hc         1 419       0.047033
     45 H4A         -5.6550     2.4560     1.0100 hc         1 419       0.047033
     46 H4B         -6.3530     3.7880     0.0790 hc         1 419       0.047033
     47 HN7         -2.9770     1.3480    -1.0770 hn         1 419       0.328500
     48 H8          -3.6370    -1.4910    -0.4560 h1         1 419       0.089700
     49 H10         -0.3860    -0.6080    -2.2380 hc         1 419       0.039367
     50 H10A        -1.0050    -0.8950    -3.8690 hc         1 419       0.039367
     51 H10B        -1.5470     0.5250    -2.9600 hc         1 419       0.039367
     52 H11         -2.8050    -3.4660    -1.7440 hc         1 419       0.039367
     53 H11A        -1.7640    -3.2580    -3.1600 hc         1 419       0.039367
     54 H11B        -1.1120    -2.9520    -1.5530 hc         1 419       0.039367
     55 H12         -3.9410    -0.2890    -3.5240 hc         1 419       0.039367
     56 H12A        -3.3600    -1.7880    -4.2510 hc         1 419       0.039367
     57 H12B        -4.5120    -1.8550    -2.9070 hc         1 419       0.039367
     58 H16          0.0890    -0.8540     2.2490 h1         1 419       0.083700
     59 H19         -3.2400    -2.6180     1.3210 h1         1 419       0.056200
     60 H19A        -2.1230    -3.7260     0.4920 h1         1 419       0.056200
     61 H18         -2.0880    -2.7940     3.4120 hc         1 419       0.059200
     62 H18A        -1.8390    -4.4320     2.8170 hc         1 419       0.059200
     63 H17          0.3570    -2.9310     3.5050 hc         1 419       0.065700
     64 H20          0.8990    -5.0230     2.2680 hc         1 419       0.050200
     65 H20A         0.0370    -4.5060     0.8130 hc         1 419       0.050200
     66 H21          2.4960    -3.0720     2.0680 hc         1 419       0.064200
     67 H21A         2.4550    -3.8430     0.4750 hc         1 419       0.064200
     68 H22          0.7500    -2.2530    -0.3920 h1         1 419       0.061700
     69 HN25         2.0910    -0.3070     1.5020 hn         1 419       0.342500
     70 H28          4.7150     0.3030    -0.8370 hc         1 419       0.084700
     71 H30          5.1180     2.8810    -0.0710 ha         1 419       0.116000
     72 H31          4.1510     5.1060    -0.5900 ha         1 419       0.112250
     73 H32          1.7530     5.3100    -1.2420 ha         1 419       0.111500
     74 H33          0.3280     3.2700    -1.3790 ha         1 419       0.112250
     75 H34          1.2660     1.0550    -0.8760 ha         1 419       0.116000
     76 H36          6.1950    -0.8900     0.6890 ha         1 419       0.116000
     77 H37          7.2380    -0.9830     2.9390 ha         1 419       0.112250
     78 H38          6.2110     0.2470     4.8490 ha         1 419       0.111500
     79 H39          4.1320     1.5750     4.4980 ha         1 419       0.112250
     80 H40          3.0810     1.6810     2.2580 ha         1 419       0.116000
@<TRIPOS>BOND
     1     1     2 2   
     2     2     3 1   
     3     2     7 1   
     4     3     4 1   
     5     3     6 1   
     6     3    39 1   
     7     4     5 1   
     8     4    40 1   
     9     5    41 1   
    10     5    42 1   
    11     5    43 1   
    12     6    44 1   
    13     6    45 1   
    14     6    46 1   
    15     7     8 1   
    16     7    47 1   
    17     8     9 1   
    18     8    13 1   
    19     8    48 1   
    20     9    10 1   
    21     9    11 1   
    22     9    12 1   
    23    10    49 1   
    24    10    50 1   
    25    10    51 1   
    26    11    52 1   
    27    11    53 1   
    28    11    54 1   
    29    12    55 1   
    30    12    56 1   
    31    12    57 1   
    32    13    14 2   
    33    13    15 1   
    34    15    16 1   
    35    15    17 1   
    36    16    19 1   
    37    16    22 1   
    38    16    58 1   
    39    17    18 1   
    40    17    59 1   
    41    17    60 1   
    42    18    19 1   
    43    18    61 1   
    44    18    62 1   
    45    19    20 1   
    46    19    63 1   
    47    20    21 1   
    48    20    64 1   
    49    20    65 1   
    50    21    22 1   
    51    21    66 1   
    52    21    67 1   
    53    22    23 1   
    54    22    68 1   
    55    23    24 1   
    56    23    69 1   
    57    24    25 2   
    58    24    26 1   
    59    26    27 1   
    60    26    33 1   
    61    26    70 1   
    62    27    28 ar  
    63    27    32 ar  
    64    28    29 ar  
    65    28    71 1   
    66    29    30 ar  
    67    29    72 1   
    68    30    31 ar  
    69    30    73 1   
    70    31    32 ar  
    71    31    74 1   
    72    32    75 1   
    73    33    34 ar  
    74    33    38 ar  
    75    34    35 ar  
    76    34    76 1   
    77    35    36 ar  
    78    35    77 1   
    79    36    37 ar  
    80    36    78 1   
    81    37    38 ar  
    82    37    79 1   
    83    38    80 1   
@<TRIPOS>SUBSTRUCTURE
     1 419         1 TEMP              0 ****  ****    0 ROOT
