@<TRIPOS>MOLECULE
419
   80    83     1     0     0
SMALL
bcc


@<TRIPOS>ATOM
      1 O6          -5.2230    -0.0840    -0.6260 o          1 419      -0.583100
      2 C5          -4.4930     0.8340    -0.2880 c          1 419       0.661100
      3 C3          -5.0250     2.0980     0.3760 c3         1 419       0.101500
      4 N2          -6.2830     2.4710    -0.2370 n7         1 419      -0.784200
      5 C1          -6.7580     3.7770     0.1800 c3         1 419       0.143100
      6 C4          -5.1940     1.8130     1.8680 c3         1 419      -0.087100
      7 N7          -3.1540     0.8150    -0.4320 ns         1 419      -0.569900
      8 C8          -2.4100    -0.3280    -0.9030 c3         1 419       0.044700
      9 C9          -1.7660    -0.0820    -2.2990 c3         1 419      -0.048000
     10 C10         -0.9740     1.2250    -2.3500 c3         1 419      -0.088767
     11 C11         -0.8490    -1.2530    -2.6550 c3         1 419      -0.088767
     12 C12         -2.8930    -0.0150    -3.3310 c3         1 419      -0.088767
     13 C13         -1.3700    -0.6770     0.1580 c          1 419       0.669100
     14 O14         -0.6760     0.2170     0.6350 o          1 419      -0.633100
     15 N15         -1.2300    -1.9570     0.5370 n          1 419      -0.467800
     16 C16         -0.2120    -2.3380     1.5040 c5         1 419       0.080700
     17 C19         -2.0080    -3.1280     0.1510 c5         1 419       0.101000
     18 C18         -2.0400    -3.9560     1.4290 c5         1 419      -0.088400
     19 C17         -0.6830    -3.6940     2.0840 c5         1 419      -0.078700
     20 C20          0.4370    -4.6860     1.7470 c5         1 419      -0.077400
     21 C21          1.6840    -3.8130     1.6710 c5         1 419      -0.089400
     22 C22          1.1660    -2.6140     0.8770 c5         1 419       0.100700
     23 N25          1.9960    -1.4300     0.8740 ns         1 419      -0.560900
     24 C26          3.1840    -1.3740     0.2620 c          1 419       0.671100
     25 O27          3.7030    -2.3360    -0.2870 o          1 419      -0.610100
     26 C28          3.8890    -0.0130     0.2370 c3         1 419      -0.051100
     27 C29          3.9050     0.5290    -1.1760 ca         1 419      -0.078300
     28 C30          5.0110     1.2480    -1.6200 ca         1 419      -0.116000
     29 C31          5.0370     1.7930    -2.8970 ca         1 419      -0.127250
     30 C32          3.9540     1.6230    -3.7500 ca         1 419      -0.125500
     31 C33          2.8480     0.9060    -3.3160 ca         1 419      -0.127250
     32 C34          2.8250     0.3640    -2.0380 ca         1 419      -0.116000
     33 C35          3.3720     0.9900     1.2450 ca         1 419      -0.078300
     34 C36          3.9550     1.0390     2.5100 ca         1 419      -0.116000
     35 C37          3.4900     1.9190     3.4770 ca         1 419      -0.127250
     36 C38          2.4260     2.7650     3.1910 ca         1 419      -0.125500
     37 C39          1.8370     2.7240     1.9350 ca         1 419      -0.127250
     38 C40          2.3100     1.8470     0.9680 ca         1 419      -0.116000
     39 H3          -4.2690     2.8950     0.2710 h1         1 419       0.020700
     40 HN2         -6.1710     2.4830    -1.2420 hn         1 419       0.361800
     41 H1          -7.6090     4.0620    -0.4380 h1         1 419       0.031033
     42 H1A         -7.1060     3.7550     1.2130 h1         1 419       0.031033
     43 H1B         -6.0040     4.5730     0.1020 h1         1 419       0.031033
     44 H4          -5.9390     1.0330     2.0280 hc         1 419       0.047033
     45 H4A         -4.2510     1.4880     2.3100 hc         1 419       0.047033
     46 H4B         -5.5100     2.7050     2.4070 hc         1 419       0.047033
     47 HN7         -2.6250     1.6090    -0.1060 hn         1 419       0.328500
     48 H8          -3.1320    -1.1320    -1.0300 h1         1 419       0.089700
     49 H10         -0.1650     1.2560    -1.6210 hc         1 419       0.039367
     50 H10A        -0.5350     1.3480    -3.3410 hc         1 419       0.039367
     51 H10B        -1.6160     2.0910    -2.1780 hc         1 419       0.039367
     52 H11         -1.3830    -2.2050    -2.6480 hc         1 419       0.039367
     53 H11A        -0.4440    -1.1190    -3.6590 hc         1 419       0.039367
     54 H11B         0.0020    -1.3420    -1.9760 hc         1 419       0.039367
     55 H12         -3.5690     0.8200    -3.1430 hc         1 419       0.039367
     56 H12A        -2.4790     0.1190    -4.3320 hc         1 419       0.039367
     57 H12B        -3.4850    -0.9330    -3.3340 hc         1 419       0.039367
     58 H16         -0.1310    -1.5740     2.2790 h1         1 419       0.083700
     59 H19         -3.0030    -2.8620    -0.1950 h1         1 419       0.056200
     60 H19A        -1.5100    -3.6710    -0.6590 h1         1 419       0.056200
     61 H18         -2.8490    -3.6030     2.0710 hc         1 419       0.059200
     62 H18A        -2.2150    -5.0130     1.2250 hc         1 419       0.059200
     63 H17         -0.7820    -3.6190     3.1670 hc         1 419       0.065700
     64 H20          0.5150    -5.4890     2.4790 hc         1 419       0.050200
     65 H20A         0.2560    -5.1540     0.7730 hc         1 419       0.050200
     66 H21          1.9940    -3.4910     2.6700 hc         1 419       0.064200
     67 H21A         2.5330    -4.3000     1.1930 hc         1 419       0.064200
     68 H22          1.0160    -2.9440    -0.1590 h1         1 419       0.061700
     69 HN25         1.5950    -0.5800     1.2410 hn         1 419       0.342500
     70 H28          4.9240    -0.2400     0.5110 hc         1 419       0.084700
     71 H30          5.8600     1.3830    -0.9610 ha         1 419       0.134000
     72 H31          5.9070     2.3470    -3.2270 ha         1 419       0.130250
     73 H32          3.9740     2.0450    -4.7470 ha         1 419       0.129500
     74 H33          2.0000     0.7670    -3.9740 ha         1 419       0.130250
     75 H34          1.9510    -0.1890    -1.7160 ha         1 419       0.134000
     76 H36          4.7850     0.3800     2.7390 ha         1 419       0.134000
     77 H37          3.9590     1.9440     4.4520 ha         1 419       0.130250
     78 H38          2.0600     3.4530     3.9420 ha         1 419       0.129500
     79 H39          1.0070     3.3790     1.7040 ha         1 419       0.130250
     80 H40          1.8390     1.8390    -0.0080 ha         1 419       0.134000
@<TRIPOS>BOND
     1     1     2 2   
     2     2     3 1   
     3     2     7 1   
     4     3     4 1   
     5     3     6 1   
     6     3    39 1   
     7     4     5 1   
     8     4    40 1   
     9     5    41 1   
    10     5    42 1   
    11     5    43 1   
    12     6    44 1   
    13     6    45 1   
    14     6    46 1   
    15     7     8 1   
    16     7    47 1   
    17     8     9 1   
    18     8    13 1   
    19     8    48 1   
    20     9    10 1   
    21     9    11 1   
    22     9    12 1   
    23    10    49 1   
    24    10    50 1   
    25    10    51 1   
    26    11    52 1   
    27    11    53 1   
    28    11    54 1   
    29    12    55 1   
    30    12    56 1   
    31    12    57 1   
    32    13    14 2   
    33    13    15 1   
    34    15    16 1   
    35    15    17 1   
    36    16    19 1   
    37    16    22 1   
    38    16    58 1   
    39    17    18 1   
    40    17    59 1   
    41    17    60 1   
    42    18    19 1   
    43    18    61 1   
    44    18    62 1   
    45    19    20 1   
    46    19    63 1   
    47    20    21 1   
    48    20    64 1   
    49    20    65 1   
    50    21    22 1   
    51    21    66 1   
    52    21    67 1   
    53    22    23 1   
    54    22    68 1   
    55    23    24 1   
    56    23    69 1   
    57    24    25 2   
    58    24    26 1   
    59    26    27 1   
    60    26    33 1   
    61    26    70 1   
    62    27    28 ar  
    63    27    32 ar  
    64    28    29 ar  
    65    28    71 1   
    66    29    30 ar  
    67    29    72 1   
    68    30    31 ar  
    69    30    73 1   
    70    31    32 ar  
    71    31    74 1   
    72    32    75 1   
    73    33    34 ar  
    74    33    38 ar  
    75    34    35 ar  
    76    34    76 1   
    77    35    36 ar  
    78    35    77 1   
    79    36    37 ar  
    80    36    78 1   
    81    37    38 ar  
    82    37    79 1   
    83    38    80 1   
@<TRIPOS>SUBSTRUCTURE
     1 419         1 TEMP              0 ****  ****    0 ROOT
