@<TRIPOS>MOLECULE
41A
   36    38     1     0     0
SMALL
No Charge or Current Charge


@<TRIPOS>ATOM
      1 C01          4.7730    -1.7870     0.2180 c3         1 41A      -0.086600
      2 C02          3.5710    -0.8890    -0.1990 c6         1 41A      -0.036000
      3 C03          3.4850    -0.9310    -1.7570 c3         1 41A      -0.086600
      4 C04          2.2570    -1.4330     0.4400 c6         1 41A      -0.113700
      5 C05          1.1100    -0.4680     0.2780 cc         1 41A       0.409300
      6 C06          1.2840     0.8800     0.1040 cd         1 41A      -0.385600
      7 C07          2.6150     1.5070     0.0420 c          1 41A       0.628700
      8 C08          3.8050     0.5690     0.2920 c6         1 41A      -0.167400
      9 O09          2.7730     2.6920    -0.2140 o          1 41A      -0.545100
     10 S10         -0.2560     1.6980    -0.1030 ss         1 41A      -0.032400
     11 C11         -0.9940     0.1050     0.0940 cd         1 41A       0.733300
     12 N12         -2.3800    -0.0950     0.0500 nh         1 41A      -0.769300
     13 C13         -3.3270     1.0710     0.0700 c6         1 41A       0.184800
     14 C14         -4.7300     0.7120    -0.5010 c6         1 41A       0.139600
     15 O15         -5.2500    -0.4850     0.1200 os         1 41A      -0.441000
     16 C16         -4.4030    -1.6340    -0.1040 c6         1 41A       0.139600
     17 C17         -2.9830    -1.4010     0.4880 c6         1 41A       0.184800
     18 N18         -0.1820    -0.9190     0.2800 nc         1 41A      -0.757000
     19 H01          5.7130    -1.4280    -0.2180 hc         1 41A       0.038033
     20 H01A         4.9040    -1.8020     1.3080 hc         1 41A       0.038033
     21 H01B         4.6320    -2.8240    -0.1090 hc         1 41A       0.038033
     22 H03          3.3420    -1.9550    -2.1220 hc         1 41A       0.038033
     23 H03A         2.6510    -0.3310    -2.1400 hc         1 41A       0.038033
     24 H03B         4.4020    -0.5440    -2.2170 hc         1 41A       0.038033
     25 H04          2.0040    -2.4090     0.0040 hc         1 41A       0.066700
     26 H04A         2.4150    -1.6170     1.5110 hc         1 41A       0.066700
     27 H08          3.9110     0.5230     1.3840 hc         1 41A       0.069200
     28 H08A         4.7250     1.0200    -0.1030 hc         1 41A       0.069200
     29 H13         -3.4480     1.4340     1.1010 h1         1 41A       0.067200
     30 H13A        -2.9360     1.9110    -0.5220 h1         1 41A       0.067200
     31 H14         -5.4280     1.5430    -0.3230 h1         1 41A       0.058450
     32 H14A        -4.6600     0.5540    -1.5870 h1         1 41A       0.058450
     33 H16         -4.8600    -2.5170     0.3620 h1         1 41A       0.058450
     34 H16A        -4.3280    -1.8220    -1.1850 h1         1 41A       0.058450
     35 H17         -2.3540    -2.2500     0.1860 h1         1 41A       0.067200
     36 H17A        -3.0500    -1.4290     1.5860 h1         1 41A       0.067200
@<TRIPOS>BOND
     1     1     2 1   
     2     1    19 1   
     3     1    20 1   
     4     1    21 1   
     5     2     3 1   
     6     2     4 1   
     7     2     8 1   
     8     3    22 1   
     9     3    23 1   
    10     3    24 1   
    11     4     5 1   
    12     4    25 1   
    13     4    26 1   
    14     5     6 2   
    15     5    18 1   
    16     6     7 1   
    17     6    10 1   
    18     7     8 1   
    19     7     9 2   
    20     8    27 1   
    21     8    28 1   
    22    10    11 1   
    23    11    12 1   
    24    11    18 2   
    25    12    13 1   
    26    12    17 1   
    27    13    14 1   
    28    13    29 1   
    29    13    30 1   
    30    14    15 1   
    31    14    31 1   
    32    14    32 1   
    33    15    16 1   
    34    16    17 1   
    35    16    33 1   
    36    16    34 1   
    37    17    35 1   
    38    17    36 1   
@<TRIPOS>SUBSTRUCTURE
     1 41A         1 TEMP              0 ****  ****    0 ROOT
