@<TRIPOS>MOLECULE
41A
   36    38     1     0     0
SMALL
bcc


@<TRIPOS>ATOM
      1 C01          4.6910    -1.7280     0.1850 c3         1 41A      -0.086600
      2 C02          3.4840    -0.8940    -0.2370 c6         1 41A      -0.036000
      3 C03          3.3360    -0.9710    -1.7590 c3         1 41A      -0.086600
      4 C04          2.2260    -1.4490     0.4490 c6         1 41A      -0.113700
      5 C05          1.0670    -0.5230     0.3200 cc         1 41A       0.474600
      6 C06          1.2500     0.8200     0.1180 cd         1 41A      -0.306000
      7 C07          2.5180     1.4760    -0.0070 c          1 41A       0.628700
      8 C08          3.7080     0.5640     0.1970 c6         1 41A      -0.167400
      9 O09          2.6310     2.6750    -0.2180 o          1 41A      -0.545100
     10 S10         -0.2910     1.6190     0.0260 ss         1 41A      -0.177300
     11 C11         -1.0470     0.0600     0.2670 cd         1 41A       0.733300
     12 N12         -2.3730    -0.0780     0.2890 nh         1 41A      -0.769300
     13 C13         -3.2920     1.0440     0.2430 c6         1 41A       0.184800
     14 C14         -4.4840     0.6900    -0.6310 c6         1 41A       0.116400
     15 O15         -5.0990    -0.5050    -0.2130 os         1 41A      -0.394600
     16 C16         -4.1940    -1.5850    -0.2640 c6         1 41A       0.116400
     17 C17         -2.9920    -1.3500     0.6310 c6         1 41A       0.184800
     18 N18         -0.2080    -0.9460     0.4080 nc         1 41A      -0.757000
     19 H01          5.6050    -1.3630    -0.2880 hc         1 41A       0.038033
     20 H01A         4.8380    -1.6950     1.2670 hc         1 41A       0.038033
     21 H01B         4.5630    -2.7740    -0.1030 hc         1 41A       0.038033
     22 H03          3.1920    -2.0030    -2.0820 hc         1 41A       0.038033
     23 H03A         2.4890    -0.3900    -2.1280 hc         1 41A       0.038033
     24 H03B         4.2340    -0.5940    -2.2520 hc         1 41A       0.038033
     25 H04          1.9660    -2.4280     0.0410 hc         1 41A       0.066700
     26 H04A         2.4240    -1.6020     1.5170 hc         1 41A       0.066700
     27 H08          3.9450     0.5910     1.2680 hc         1 41A       0.069200
     28 H08A         4.5720     0.9870    -0.3230 hc         1 41A       0.069200
     29 H13         -3.6170     1.2960     1.2570 h1         1 41A       0.067200
     30 H13A        -2.8090     1.9250    -0.1810 h1         1 41A       0.067200
     31 H14         -5.2260     1.4850    -0.5680 h1         1 41A       0.058450
     32 H14A        -4.1530     0.6120    -1.6750 h1         1 41A       0.058450
     33 H16         -4.7250    -2.4780     0.0700 h1         1 41A       0.058450
     34 H16A        -3.8540    -1.7580    -1.2940 h1         1 41A       0.058450
     35 H17         -2.2710    -2.1530     0.5040 h1         1 41A       0.067200
     36 H17A        -3.2980    -1.3310     1.6830 h1         1 41A       0.067200
@<TRIPOS>BOND
     1     1     2 1   
     2     1    19 1   
     3     1    20 1   
     4     1    21 1   
     5     2     3 1   
     6     2     4 1   
     7     2     8 1   
     8     3    22 1   
     9     3    23 1   
    10     3    24 1   
    11     4     5 1   
    12     4    25 1   
    13     4    26 1   
    14     5     6 2   
    15     5    18 1   
    16     6     7 1   
    17     6    10 1   
    18     7     8 1   
    19     7     9 2   
    20     8    27 1   
    21     8    28 1   
    22    10    11 1   
    23    11    12 1   
    24    11    18 2   
    25    12    13 1   
    26    12    17 1   
    27    13    14 1   
    28    13    29 1   
    29    13    30 1   
    30    14    15 1   
    31    14    31 1   
    32    14    32 1   
    33    15    16 1   
    34    16    17 1   
    35    16    33 1   
    36    16    34 1   
    37    17    35 1   
    38    17    36 1   
@<TRIPOS>SUBSTRUCTURE
     1 41A         1 TEMP              0 ****  ****    0 ROOT
