@<TRIPOS>MOLECULE
41B
   53    56     1     0     0
SMALL
bcc


@<TRIPOS>ATOM
      1 C4          -6.3100     0.3280    -0.2310 ca         1 41B       0.143900
      2 C5          -5.4730    -0.6940     0.1660 ca         1 41B      -0.148000
      3 C6          -4.1520    -0.7080    -0.2620 ca         1 41B      -0.054300
      4 C7          -3.2720    -1.8680     0.1390 c3         1 41B       0.148000
      5 C13          0.3880    -1.2310    -0.2070 cc         1 41B      -0.221000
      6 C15         -0.3630    -0.3290     1.8780 cd         1 41B      -0.251200
      7 C20          3.7260     0.8660     2.6380 ca         1 41B       0.478200
      8 C22          4.2180     0.0040     0.6120 ca         1 41B       0.916900
      9 C26          7.3280    -0.7970    -1.2240 c6         1 41B      -0.131900
     10 C1          -3.6930     0.3160    -1.0820 ca         1 41B      -0.105000
     11 C2          -4.5390     1.3440    -1.4690 ca         1 41B      -0.098000
     12 C3          -5.8590     1.3510    -1.0460 ca         1 41B      -0.018600
     13 C9          -3.3860    -3.0190    -0.8520 c3         1 41B       0.127400
     14 O10         -3.1880    -2.5700    -2.1680 oh         1 41B      -0.595800
     15 N11         -1.9000    -1.4240     0.4070 n          1 41B      -0.338000
     16 C12         -0.8770    -1.6390    -0.4630 cd         1 41B       0.008600
     17 C14          0.6620    -0.5540     1.0090 cc         1 41B      -0.054800
     18 C16         -1.7110    -0.7460     1.6090 c          1 41B       0.688700
     19 O17         -2.6580    -0.5420     2.3630 o          1 41B      -0.632500
     20 C18          2.0490    -0.1130     1.3060 ca         1 41B       0.546100
     21 C19          2.3930     0.5260     2.4960 ca         1 41B      -0.418600
     22 N21          4.6450     0.6200     1.7200 nb         1 41B      -0.768000
     23 N23          2.9530    -0.3680     0.3750 nb         1 41B      -0.782000
     24 C25          6.5090     0.0990    -0.3040 c6         1 41B       0.249500
     25 C27          8.7820    -0.3490    -1.2260 c6         1 41B       0.133900
     26 O28          8.9220     1.0050    -1.5950 os         1 41B      -0.402600
     27 C29          8.2240     1.8660    -0.7210 c6         1 41B       0.133900
     28 C30          6.7340     1.5600    -0.6910 c6         1 41B      -0.131900
     29 F31         -7.5780     0.3380     0.1860 f          1 41B      -0.126900
     30 CL1         -6.9390     2.6100    -1.5100 cl         1 41B      -0.080400
     31 H1          -5.8580    -1.4740     0.8130 ha         1 41B       0.151000
     32 H2          -3.6440    -2.2710     1.0830 h1         1 41B       0.092700
     33 H3           1.1660    -1.4220    -0.9280 ha         1 41B       0.170000
     34 H4          -0.2180     0.1820     2.8200 ha         1 41B       0.160000
     35 H5           4.0670     1.3650     3.5390 h4         1 41B       0.022100
     36 H7           6.9280    -0.7530    -2.2430 hc         1 41B       0.058200
     37 H8          -2.6670     0.3360    -1.4250 ha         1 41B       0.145000
     38 H9          -4.1750     2.1390    -2.1050 ha         1 41B       0.150000
     39 H10         -2.6800    -3.8100    -0.5680 h1         1 41B       0.036200
     40 H11         -4.3930    -3.4310    -0.7180 h1         1 41B       0.036200
     41 H12         -3.2550    -3.3280    -2.7580 ho         1 41B       0.413000
     42 H13         -1.1250    -2.1420    -1.3840 h4         1 41B       0.167000
     43 H14          1.6840     0.7530     3.2770 ha         1 41B       0.158000
     44 H16          6.8670    -0.0440     0.7200 h1         1 41B       0.076700
     45 H17          9.2160    -0.5210    -0.2290 h1         1 41B       0.047700
     46 H18          9.3610    -0.9370    -1.9390 h1         1 41B       0.047700
     47 H19          8.6330     1.7890     0.2980 h1         1 41B       0.047700
     48 H20          8.4020     2.8850    -1.0660 h1         1 41B       0.047700
     49 H21          6.2950     1.7500    -1.6750 hc         1 41B       0.058200
     50 H22          6.2420     2.2250     0.0230 hc         1 41B       0.058200
     51 N24          5.1180    -0.2910    -0.3420 nu         1 41B      -0.864900
     52 H6           7.2730    -1.8390    -0.8970 hc         1 41B       0.058200
     53 H15          4.7500    -0.6650    -1.2030 hn         1 41B       0.447800
@<TRIPOS>BOND
     1     1     2 ar  
     2     1    12 ar  
     3     1    29 1   
     4     2     3 ar  
     5     2    31 1   
     6     3     4 1   
     7     3    10 ar  
     8     4    13 1   
     9     4    15 1   
    10     4    32 1   
    11     5    16 2   
    12     5    17 1   
    13     5    33 1   
    14     6    17 2   
    15     6    18 1   
    16     6    34 1   
    17     7    21 ar  
    18     7    22 ar  
    19     7    35 1   
    20     8    22 ar  
    21     8    23 ar  
    22     8    51 1   
    23     9    24 1   
    24     9    25 1   
    25     9    36 1   
    26     9    52 1   
    27    10    11 ar  
    28    10    37 1   
    29    11    12 ar  
    30    11    38 1   
    31    12    30 1   
    32    13    14 1   
    33    13    39 1   
    34    13    40 1   
    35    14    41 1   
    36    15    16 1   
    37    15    18 1   
    38    16    42 1   
    39    17    20 1   
    40    18    19 2   
    41    20    21 ar  
    42    20    23 ar  
    43    21    43 1   
    44    24    28 1   
    45    24    44 1   
    46    24    51 1   
    47    25    26 1   
    48    25    45 1   
    49    25    46 1   
    50    26    27 1   
    51    27    28 1   
    52    27    47 1   
    53    27    48 1   
    54    28    49 1   
    55    28    50 1   
    56    51    53 1   
@<TRIPOS>SUBSTRUCTURE
     1 41B         1 TEMP              0 ****  ****    0 ROOT
