@<TRIPOS>MOLECULE
41B
   53    56     1     0     0
SMALL
No Charge or Current Charge


@<TRIPOS>ATOM
      1 C4          -6.0530     0.8840    -0.4590 ca         1 41B       0.179000
      2 C5          -5.4100    -0.2400     0.0830 ca         1 41B      -0.130000
      3 C6          -4.1300    -0.6190    -0.3750 ca         1 41B      -0.054300
      4 C7          -3.4280    -1.8430     0.2280 c3         1 41B       0.148000
      5 C13          0.3840    -1.8610     0.0860 cc         1 41B      -0.271000
      6 C15         -0.2910    -0.3810     1.8530 cd         1 41B      -0.301200
      7 C20          3.8430     0.2940     2.9380 ca         1 41B       0.149900
      8 C22          4.2830    -0.2120     0.7530 ca         1 41B       0.390900
      9 C26          7.3320    -0.4580    -1.4780 c6         1 41B      -0.131900
     10 C1          -3.5090     0.1470    -1.3850 ca         1 41B      -0.087000
     11 C2          -4.1550     1.2730    -1.9280 ca         1 41B      -0.080000
     12 C3          -5.4280     1.6440    -1.4660 ca         1 41B       0.073000
     13 C9          -3.7550    -3.1340    -0.5890 c3         1 41B       0.150600
     14 O10         -3.4650    -2.9980    -1.9940 oh         1 41B      -0.658000
     15 N11         -1.9840    -1.5780     0.5470 n          1 41B      -0.271000
     16 C12         -0.9360    -2.1440    -0.1920 cd         1 41B      -0.041400
     17 C14          0.7430    -0.9780     1.1570 cc         1 41B      -0.054800
     18 C16         -1.7150    -0.6550     1.5890 c          1 41B       0.546200
     19 O17         -2.5940    -0.1140     2.2470 o          1 41B      -0.557000
     20 C18          2.1290    -0.5830     1.4790 ca         1 41B       0.217800
     21 C19          2.5100    -0.1050     2.7520 ca         1 41B      -0.270000
     22 N21          4.7380     0.2410     1.9370 nb         1 41B      -0.242000
     23 N23          3.0350    -0.6200     0.4760 nb         1 41B      -0.256000
     24 C25          6.5540     0.2210    -0.3270 c6         1 41B       0.249500
     25 C27          8.7470     0.1520    -1.5950 c6         1 41B       0.157100
     26 O28          8.6480     1.5810    -1.7730 os         1 41B      -0.449000
     27 C29          8.0100     2.2680    -0.6750 c6         1 41B       0.157100
     28 C30          6.5600     1.7580    -0.5110 c6         1 41B      -0.131900
     29 F31         -7.2800     1.2300    -0.0040 f          1 41B      -0.162000
     30 Cl1         -6.2240     3.0590    -2.1560 cl         1 41B      -0.172000
     31 H1          -5.9080    -0.8130     0.8610 ha         1 41B       0.133000
     32 H2          -3.9030    -2.0240     1.2020 h1         1 41B       0.092700
     33 H3           1.1730    -2.3150    -0.5100 ha         1 41B       0.220000
     34 H4          -0.1340     0.3480     2.6370 ha         1 41B       0.210000
     35 H5           4.1980     0.6580     3.9010 h4         1 41B       0.022100
     36 H7           6.8020    -0.3270    -2.4310 hc         1 41B       0.058200
     37 H8          -2.5250    -0.1330    -1.7550 ha         1 41B       0.127000
     38 H9          -3.6680     1.8560    -2.7060 ha         1 41B       0.132000
     39 H10         -3.2010    -3.9800    -0.1600 h1         1 41B       0.036200
     40 H11         -4.8230    -3.3530    -0.4580 h1         1 41B       0.036200
     41 H12         -3.8120    -3.8030    -2.4400 ho         1 41B       0.452000
     42 H13         -1.2340    -2.8050    -0.9980 h4         1 41B       0.217000
     43 H14          1.8150    -0.0660     3.5840 ha         1 41B       0.140000
     44 H16          7.0670    -0.0290     0.6170 h1         1 41B       0.076700
     45 H17          9.3350    -0.0630    -0.6910 h1         1 41B       0.047700
     46 H18          9.2740    -0.2810    -2.4570 h1         1 41B       0.047700
     47 H19          8.5850     2.0960     0.2470 h1         1 41B       0.047700
     48 H20          8.0070     3.3480    -0.8800 h1         1 41B       0.047700
     49 H21          5.9720     2.0380    -1.3950 hc         1 41B       0.058200
     50 H22          6.0920     2.2490     0.3520 hc         1 41B       0.058200
     51 N24          5.1730    -0.2840    -0.3110 nu         1 41B      -0.920100
     52 H6           7.4070    -1.5390    -1.2990 hc         1 41B       0.058200
     53 H15          4.7710    -0.6260    -1.1840 hn         1 41B       0.503000
@<TRIPOS>BOND
     1     1     2 ar  
     2     1    12 ar  
     3     1    29 1   
     4     2     3 ar  
     5     2    31 1   
     6     3     4 1   
     7     3    10 ar  
     8     4    13 1   
     9     4    15 1   
    10     4    32 1   
    11     5    16 2   
    12     5    17 1   
    13     5    33 1   
    14     6    17 2   
    15     6    18 1   
    16     6    34 1   
    17     7    21 ar  
    18     7    22 ar  
    19     7    35 1   
    20     8    22 ar  
    21     8    23 ar  
    22     8    51 1   
    23     9    24 1   
    24     9    25 1   
    25     9    36 1   
    26     9    52 1   
    27    10    11 ar  
    28    10    37 1   
    29    11    12 ar  
    30    11    38 1   
    31    12    30 1   
    32    13    14 1   
    33    13    39 1   
    34    13    40 1   
    35    14    41 1   
    36    15    16 1   
    37    15    18 1   
    38    16    42 1   
    39    17    20 1   
    40    18    19 2   
    41    20    21 ar  
    42    20    23 ar  
    43    21    43 1   
    44    24    28 1   
    45    24    44 1   
    46    24    51 1   
    47    25    26 1   
    48    25    45 1   
    49    25    46 1   
    50    26    27 1   
    51    27    28 1   
    52    27    47 1   
    53    27    48 1   
    54    28    49 1   
    55    28    50 1   
    56    51    53 1   
@<TRIPOS>SUBSTRUCTURE
     1 41B         1 TEMP              0 ****  ****    0 ROOT
