@<TRIPOS>MOLECULE
41D
   31    31     1     0     0
SMALL
No Charge or Current Charge


@<TRIPOS>ATOM
      1 C10         -0.4130     0.2540     1.1070 c3         1 41D       0.018600
      2 C01         -3.1980     2.6190     0.1220 ca         1 41D      -0.128000
      3 C02         -4.0030     1.8150    -0.6990 ca         1 41D      -0.003000
      4 C03         -3.6330     0.4810    -0.9370 ca         1 41D      -0.137000
      5 C04         -2.4620    -0.0580    -0.3600 ca         1 41D       0.042400
      6 N05         -1.6580     0.7500     0.4760 na         1 41D       0.073300
      7 C06         -2.0350     2.0800     0.6990 ca         1 41D      -0.059000
      8 C08         -2.7200    -2.4810     0.3910 c3         1 41D       0.175600
      9 O09         -2.3600    -3.8270     0.0660 oh         1 41D      -0.641000
     10 C11          0.8450     0.4980     0.2430 c3         1 41D      -0.050400
     11 C12          2.1330    -0.0470     0.9120 c3         1 41D      -0.362400
     12 S13          3.6370     0.2190    -0.0600 s6         1 41D       1.310600
     13 O14          3.3730    -0.4980    -1.3150 o          1 41D      -0.674867
     14 O15          3.7140     1.6810    -0.1920 o          1 41D      -0.674867
     15 O16          4.6900    -0.3760     0.7750 o          1 41D      -0.674867
     16 H1          -0.2850     0.7620     2.0710 h1         1 41D       0.085200
     17 H2          -0.5070    -0.8150     1.3320 h1         1 41D       0.085200
     18 H3          -3.4740     3.6550     0.3100 ha         1 41D       0.167000
     19 H4          -4.9070     2.2230    -1.1490 ha         1 41D       0.156000
     20 H6          -4.2630    -0.1380    -1.5740 ha         1 41D       0.164000
     21 H7          -1.3920     2.6900     1.3370 h4         1 41D       0.185000
     22 H8          -2.4960    -1.8030    -1.6400 hc         1 41D       0.110200
     23 H9          -1.0330    -1.6790    -0.7090 hc         1 41D       0.110200
     24 H10         -2.3490    -2.2190     1.3900 h1         1 41D       0.020200
     25 H11         -3.8120    -2.3690     0.3950 h1         1 41D       0.020200
     26 H12         -2.7750    -4.4060     0.7450 ho         1 41D       0.462000
     27 H13          0.7100     0.0250    -0.7380 hc         1 41D       0.071200
     28 H14          0.9500     1.5760     0.0630 hc         1 41D       0.071200
     29 H15          2.3040     0.4440     1.8760 h1         1 41D       0.076700
     30 H16          2.0580    -1.1290     1.0660 h1         1 41D       0.076700
     31 C07         -2.1160    -1.5210    -0.6510 c3         1 41D      -0.076100
@<TRIPOS>BOND
     1     1     6 1   
     2     1    10 1   
     3     1    16 1   
     4     1    17 1   
     5     2     3 ar  
     6     2     7 ar  
     7     2    18 1   
     8     3     4 ar  
     9     3    19 1   
    10     4     5 ar  
    11     4    20 1   
    12     5     6 2   
    13     5    31 1   
    14     6     7 1   
    15     7    21 1   
    16     8     9 1   
    17     8    24 1   
    18     8    25 1   
    19     8    31 1   
    20     9    26 1   
    21    10    11 1   
    22    10    27 1   
    23    10    28 1   
    24    11    12 1   
    25    11    29 1   
    26    11    30 1   
    27    12    13 1   
    28    12    14 1   
    29    12    15 1   
    30    22    31 1   
    31    23    31 1   
@<TRIPOS>SUBSTRUCTURE
     1 41D         1 TEMP              0 ****  ****    0 ROOT
