@<TRIPOS>MOLECULE
41D
   31    31     1     0     0
SMALL
bcc


@<TRIPOS>ATOM
      1 C10         -0.4490     0.2560     1.1360 c3         1 41D      -0.010700
      2 C01         -3.1560     2.5600     0.1430 ca         1 41D      -0.146000
      3 C02         -3.9070     1.7790    -0.7230 ca         1 41D      -0.021000
      4 C03         -3.5140     0.4770    -0.9670 ca         1 41D      -0.155000
      5 C04         -2.3870    -0.0510    -0.3590 ca         1 41D       0.042400
      6 N05         -1.6870     0.7340     0.4880 na         1 41D       0.051900
      7 C06         -2.0490     2.0050     0.7310 ca         1 41D      -0.026300
      8 C08         -2.6650    -2.4070     0.4080 c3         1 41D       0.152400
      9 O09         -2.2740    -3.7170     0.0890 oh         1 41D      -0.578800
     10 C11          0.7620     0.4980     0.2490 c3         1 41D      -0.050400
     11 C12          2.0110    -0.0730     0.8970 c3         1 41D      -0.251600
     12 S13          3.4790     0.1770    -0.1220 s6         1 41D       1.199800
     13 O14          3.2000    -0.5220    -1.3920 o          1 41D      -0.674867
     14 O15          3.6090     1.6390    -0.2810 o          1 41D      -0.674867
     15 O16          4.5860    -0.4280     0.6430 o          1 41D      -0.674867
     16 H1          -0.3560     0.7930     2.0780 h1         1 41D       0.085200
     17 H2          -0.5690    -0.7940     1.3890 h1         1 41D       0.085200
     18 H3          -3.4170     3.5830     0.3660 ha         1 41D       0.185000
     19 H4          -4.7880     2.1810    -1.2040 ha         1 41D       0.174000
     20 H6          -4.0760    -0.1530    -1.6410 ha         1 41D       0.182000
     21 H7          -1.4250     2.5570     1.4170 h4         1 41D       0.203000
     22 H8          -2.3290    -1.7410    -1.6050 hc         1 41D       0.110200
     23 H9          -0.9160    -1.6140    -0.5830 hc         1 41D       0.110200
     24 H10         -2.3700    -2.1300     1.4280 h1         1 41D       0.020200
     25 H11         -3.7530    -2.2750     0.3470 h1         1 41D       0.020200
     26 H12         -2.6530    -4.3120     0.7420 ho         1 41D       0.423000
     27 H13          0.6120     0.0410    -0.7310 hc         1 41D       0.071200
     28 H14          0.8840     1.5710     0.0890 hc         1 41D       0.071200
     29 H15          2.2040     0.3950     1.8650 h1         1 41D       0.076700
     30 H16          1.9130    -1.1480     1.0600 h1         1 41D       0.076700
     31 C07         -1.9970    -1.4740    -0.6010 c3         1 41D      -0.076100
@<TRIPOS>BOND
     1     1     6 1   
     2     1    10 1   
     3     1    16 1   
     4     1    17 1   
     5     2     3 ar  
     6     2     7 ar  
     7     2    18 1   
     8     3     4 ar  
     9     3    19 1   
    10     4     5 ar  
    11     4    20 1   
    12     5     6 2   
    13     5    31 1   
    14     6     7 1   
    15     7    21 1   
    16     8     9 1   
    17     8    24 1   
    18     8    25 1   
    19     8    31 1   
    20     9    26 1   
    21    10    11 1   
    22    10    27 1   
    23    10    28 1   
    24    11    12 1   
    25    11    29 1   
    26    11    30 1   
    27    12    13 1   
    28    12    14 1   
    29    12    15 1   
    30    22    31 1   
    31    23    31 1   
@<TRIPOS>SUBSTRUCTURE
     1 41D         1 TEMP              0 ****  ****    0 ROOT
