@<TRIPOS>MOLECULE
41E
   55    57     1     0     0
SMALL
abcg2


@<TRIPOS>ATOM
      1 CAB        -14.3320   -33.1730   -28.9740 c3         1 41E      -0.185100
      2 CAU        -15.1540   -33.1170   -30.2350 c          1 41E       0.604700
      3 OAC        -16.2330   -32.5380   -30.2760 o          1 41E      -0.528100
      4 CAZ        -14.6180   -33.7820   -31.4240 cc         1 41E      -0.323600
      5 SAT        -15.5080   -33.7230   -32.9080 ss         1 41E       0.383000
      6 CAI        -13.4530   -34.5020   -31.5690 cd         1 41E      -0.092000
      7 CAJ        -13.2890   -35.0220   -32.8700 cd         1 41E      -0.124000
      8 CBA        -14.3270   -34.6870   -33.7070 cc         1 41E      -0.280600
      9 CAW        -14.4680   -34.9340   -35.1720 c          1 41E       0.637700
     10 OAE        -14.7160   -33.9730   -35.9110 o          1 41E      -0.597100
     11 NBC        -14.2890   -36.1910   -35.6230 n          1 41E      -0.405800
     12 CAQ        -14.2500   -37.4040   -34.8030 c6         1 41E       0.101000
     13 CAO        -12.9940   -38.2130   -35.1020 c6         1 41E      -0.092400
     14 CAP        -14.2450   -36.4610   -37.0600 c6         1 41E       0.101000
     15 CAN        -12.9970   -37.2640   -37.4170 c6         1 41E      -0.092400
     16 CBB        -12.8830   -38.5530   -36.5920 c6         1 41E      -0.062700
     17 CAM        -11.6010   -39.3470   -36.8610 c3         1 41E      -0.064400
     18 CAL        -11.5230   -40.0330   -38.2320 c3         1 41E      -0.164400
     19 CAV        -11.4000   -39.1370   -39.4510 c          1 41E       0.604100
     20 OAD        -12.1520   -39.2480   -40.4150 o          1 41E      -0.583100
     21 NAR        -10.3820   -38.2340   -39.3880 ns         1 41E      -0.148000
     22 CAX        -10.0330   -37.2100   -40.2840 ca         1 41E       0.011000
     23 CAK         -8.9950   -36.3610   -39.8730 ca         1 41E      -0.254000
     24 CAG        -10.6580   -37.0100   -41.5140 ca         1 41E      -0.168000
     25 CAF        -10.2300   -35.9540   -42.3180 ca         1 41E      -0.051000
     26 CAH         -9.2070   -35.1080   -41.9280 ca         1 41E      -0.165000
     27 CAY         -8.5850   -35.3160   -40.6920 ca         1 41E       0.164100
     28 OAS         -7.5890   -34.4480   -40.3690 os         1 41E      -0.347100
     29 CAA         -6.9020   -34.6350   -39.1320 c3         1 41E       0.148900
     30 H1         -14.8380   -32.6210   -28.1860 hc         1 41E       0.063367
     31 H2         -14.1890   -34.2100   -28.6630 hc         1 41E       0.063367
     32 H3         -13.3410   -32.7470   -29.1470 hc         1 41E       0.063367
     33 H4         -12.7430   -34.6520   -30.7690 ha         1 41E       0.135000
     34 H5         -12.4390   -35.6080   -33.1880 ha         1 41E       0.137000
     35 H6         -14.3160   -37.1410   -33.7540 h1         1 41E       0.059700
     36 H7         -15.1360   -37.9970   -35.0530 h1         1 41E       0.059700
     37 H8         -13.0160   -39.1310   -34.5090 hc         1 41E       0.052200
     38 H9         -12.1140   -37.6410   -34.7880 hc         1 41E       0.052200
     39 H10        -14.2650   -35.5110   -37.5860 h1         1 41E       0.059700
     40 H11        -15.1450   -37.0220   -37.3350 h1         1 41E       0.059700
     41 H12        -13.0390   -37.4820   -38.4840 hc         1 41E       0.052200
     42 H13        -12.1110   -36.6450   -37.2450 hc         1 41E       0.052200
     43 H14        -13.7370   -39.1920   -36.8500 hc         1 41E       0.054700
     44 H15        -11.5270   -40.1370   -36.1090 hc         1 41E       0.041700
     45 H16        -10.7330   -38.7010   -36.6970 hc         1 41E       0.041700
     46 H17        -12.4100   -40.6460   -38.3920 hc         1 41E       0.073200
     47 H18        -10.6590   -40.7060   -38.2400 hc         1 41E       0.073200
     48 H19         -9.8340   -38.2550   -38.5410 hn         1 41E       0.147000
     49 H20         -8.5270   -36.5340   -38.9150 ha         1 41E       0.110000
     50 H21        -11.4540   -37.6600   -41.8310 ha         1 41E       0.151000
     51 H22        -10.7130   -35.7950   -43.2750 ha         1 41E       0.118000
     52 H23         -8.8780   -34.2900   -42.5560 ha         1 41E       0.130000
     53 H24         -6.1470   -33.8530   -39.0890 h1         1 41E       0.041033
     54 H25         -7.5840   -34.5340   -38.2840 h1         1 41E       0.041033
     55 H26         -6.4180   -35.6140   -39.0970 h1         1 41E       0.041033
@<TRIPOS>BOND
     1     1     2 1   
     2     1    30 1   
     3     1    31 1   
     4     1    32 1   
     5     2     3 2   
     6     2     4 1   
     7     4     5 1   
     8     4     6 2   
     9     5     8 1   
    10     6     7 1   
    11     6    33 1   
    12     7     8 2   
    13     7    34 1   
    14     8     9 1   
    15     9    10 2   
    16     9    11 1   
    17    11    12 1   
    18    11    14 1   
    19    12    13 1   
    20    12    35 1   
    21    12    36 1   
    22    13    16 1   
    23    13    37 1   
    24    13    38 1   
    25    14    15 1   
    26    14    39 1   
    27    14    40 1   
    28    15    16 1   
    29    15    41 1   
    30    15    42 1   
    31    16    17 1   
    32    16    43 1   
    33    17    18 1   
    34    17    44 1   
    35    17    45 1   
    36    18    19 1   
    37    18    46 1   
    38    18    47 1   
    39    19    20 2   
    40    19    21 1   
    41    21    22 1   
    42    21    48 1   
    43    22    23 ar  
    44    22    24 ar  
    45    23    27 ar  
    46    23    49 1   
    47    24    25 ar  
    48    24    50 1   
    49    25    26 ar  
    50    25    51 1   
    51    26    27 ar  
    52    26    52 1   
    53    27    28 1   
    54    28    29 1   
    55    29    53 1   
    56    29    54 1   
    57    29    55 1   
@<TRIPOS>SUBSTRUCTURE
     1 41E         1 TEMP              0 ****  ****    0 ROOT
