@<TRIPOS>MOLECULE
41E
   55    57     1     0     0
SMALL
No Charge or Current Charge


@<TRIPOS>ATOM
      1 CAB        -15.9220   -33.6420   -28.2770 c3         1 41E      -0.185100
      2 CAU        -16.5870   -33.4440   -29.6390 c          1 41E       0.604700
      3 OAC        -17.6530   -32.8510   -29.7230 o          1 41E      -0.528100
      4 CAZ        -15.9080   -33.9870   -30.8320 cc         1 41E      -0.323600
      5 SAT        -16.5850   -33.8050   -32.4440 ss         1 41E       0.383000
      6 CAI        -14.7070   -34.6610   -30.8560 cd         1 41E      -0.092000
      7 CAJ        -14.3270   -35.0660   -32.1630 cd         1 41E      -0.124000
      8 CBA        -15.2520   -34.7220   -33.1300 cc         1 41E      -0.280600
      9 CAW        -15.1530   -34.9340   -34.5930 c          1 41E       0.637700
     10 OAE        -15.8700   -34.3310   -35.3800 o          1 41E      -0.597100
     11 NBC        -14.1700   -35.8400   -35.0490 n          1 41E      -0.405800
     12 CAQ        -14.1130   -37.2190   -34.4760 c6         1 41E       0.101000
     13 CAO        -12.7630   -37.9290   -34.7300 c6         1 41E      -0.092400
     14 CAP        -13.7700   -35.7980   -36.4830 c6         1 41E       0.101000
     15 CAN        -12.4210   -36.5040   -36.7630 c6         1 41E      -0.092400
     16 CBB        -12.4170   -37.9660   -36.2390 c6         1 41E      -0.062700
     17 CAM        -11.0590   -38.7010   -36.4900 c3         1 41E      -0.064400
     18 CAL        -10.8850   -39.4350   -37.8500 c3         1 41E      -0.164400
     19 CAV        -11.1010   -38.5540   -39.0880 c          1 41E       0.604100
     20 OAD        -12.2150   -38.3960   -39.5740 o          1 41E      -0.583100
     21 NAR         -9.9340   -38.0120   -39.6090 ns         1 41E      -0.148000
     22 CAX         -9.6930   -37.1370   -40.7020 ca         1 41E       0.011000
     23 CAK         -8.3530   -36.9070   -41.0660 ca         1 41E      -0.254000
     24 CAG        -10.7200   -36.4810   -41.4150 ca         1 41E      -0.168000
     25 CAF        -10.4070   -35.6220   -42.4810 ca         1 41E      -0.051000
     26 CAH         -9.0670   -35.4070   -42.8400 ca         1 41E      -0.165000
     27 CAY         -8.0360   -36.0440   -42.1370 ca         1 41E       0.164100
     28 OAS         -6.7370   -35.7940   -42.5300 os         1 41E      -0.347100
     29 CAA         -5.6070   -36.3960   -41.8750 c3         1 41E       0.148900
     30 H1         -16.5050   -33.2100   -27.4560 hc         1 41E       0.063367
     31 H2         -15.7370   -34.7110   -28.1230 hc         1 41E       0.063367
     32 H3         -14.9080   -33.2280   -28.3130 hc         1 41E       0.063367
     33 H4         -14.0970   -34.8640   -29.9800 ha         1 41E       0.135000
     34 H5         -13.3870   -35.5710   -32.3650 ha         1 41E       0.137000
     35 H6         -14.3330   -37.2290   -33.4030 h1         1 41E       0.059700
     36 H7         -14.9090   -37.8130   -34.9480 h1         1 41E       0.059700
     37 H8         -12.8140   -38.9500   -34.3280 hc         1 41E       0.052200
     38 H9         -11.9690   -37.4120   -34.1720 hc         1 41E       0.052200
     39 H10        -13.6940   -34.7510   -36.8110 h1         1 41E       0.059700
     40 H11        -14.5580   -36.2710   -37.0870 h1         1 41E       0.059700
     41 H12        -12.2170   -36.4600   -37.8380 hc         1 41E       0.052200
     42 H13        -11.6160   -35.9350   -36.2770 hc         1 41E       0.052200
     43 H14        -13.1970   -38.5410   -36.7570 hc         1 41E       0.054700
     44 H15        -10.9100   -39.4590   -35.7100 hc         1 41E       0.041700
     45 H16        -10.2300   -37.9940   -36.3620 hc         1 41E       0.041700
     46 H17        -11.5980   -40.2670   -37.8870 hc         1 41E       0.073200
     47 H18         -9.8590   -39.8230   -37.8630 hc         1 41E       0.073200
     48 H19         -9.0960   -38.2750   -39.1070 hn         1 41E       0.147000
     49 H20         -7.5680   -37.4100   -40.5080 ha         1 41E       0.110000
     50 H21        -11.7650   -36.6170   -41.1550 ha         1 41E       0.151000
     51 H22        -11.2030   -35.1200   -43.0270 ha         1 41E       0.118000
     52 H23         -8.8270   -34.7410   -43.6650 ha         1 41E       0.130000
     53 H24         -4.6730   -36.0630   -42.3450 h1         1 41E       0.041033
     54 H25         -5.5740   -36.1140   -40.8150 h1         1 41E       0.041033
     55 H26         -5.6510   -37.4910   -41.9480 h1         1 41E       0.041033
@<TRIPOS>BOND
     1     1     2 1   
     2     1    30 1   
     3     1    31 1   
     4     1    32 1   
     5     2     3 2   
     6     2     4 1   
     7     4     5 1   
     8     4     6 2   
     9     5     8 1   
    10     6     7 1   
    11     6    33 1   
    12     7     8 2   
    13     7    34 1   
    14     8     9 1   
    15     9    10 2   
    16     9    11 1   
    17    11    12 1   
    18    11    14 1   
    19    12    13 1   
    20    12    35 1   
    21    12    36 1   
    22    13    16 1   
    23    13    37 1   
    24    13    38 1   
    25    14    15 1   
    26    14    39 1   
    27    14    40 1   
    28    15    16 1   
    29    15    41 1   
    30    15    42 1   
    31    16    17 1   
    32    16    43 1   
    33    17    18 1   
    34    17    44 1   
    35    17    45 1   
    36    18    19 1   
    37    18    46 1   
    38    18    47 1   
    39    19    20 2   
    40    19    21 1   
    41    21    22 1   
    42    21    48 1   
    43    22    23 ar  
    44    22    24 ar  
    45    23    27 ar  
    46    23    49 1   
    47    24    25 ar  
    48    24    50 1   
    49    25    26 ar  
    50    25    51 1   
    51    26    27 ar  
    52    26    52 1   
    53    27    28 1   
    54    28    29 1   
    55    29    53 1   
    56    29    54 1   
    57    29    55 1   
@<TRIPOS>SUBSTRUCTURE
     1 41E         1 TEMP              0 ****  ****    0 ROOT
