@<TRIPOS>MOLECULE
41F
   41    44     1     0     0
SMALL
bcc


@<TRIPOS>ATOM
      1 CAI         -3.1720     0.9250     0.0350 ca         1 41F      -0.120000
      2 CAU         -4.5650     0.8860     0.1110 ca         1 41F       0.042400
      3 NAO         -5.3700     1.9330     0.4850 nc         1 41F      -0.161400
      4 NAN         -6.5950     1.6660     0.4930 nd         1 41F      -0.106500
      5 SAQ         -6.9350     0.0610     0.0330 ss         1 41F       0.116600
      6 CAV         -5.2750    -0.2810    -0.1890 ca         1 41F      -0.091100
      7 CAH         -4.5960    -1.4290    -0.5970 ca         1 41F      -0.072000
      8 CAG         -3.2250    -1.3810    -0.6910 ca         1 41F      -0.100000
      9 CAS         -2.5000    -0.2120    -0.3670 ca         1 41F       0.079600
     10 NAP         -1.1130    -0.1560    -0.5190 ns         1 41F      -0.490100
     11 CAR         -0.2600    -1.1630    -0.1130 c          1 41F       0.798100
     12 OAA         -0.6760    -2.1700     0.4390 o          1 41F      -0.618100
     13 NAW          1.0560    -0.9490    -0.3650 n          1 41F      -0.495800
     14 CAK          2.0470    -1.9070     0.0850 c6         1 41F       0.100000
     15 CAM          3.2190    -1.1950     0.7410 c6         1 41F       0.181300
     16 CAJ          1.6190     0.0360    -1.2700 c6         1 41F       0.100000
     17 CAL          2.7820     0.7490    -0.6070 c6         1 41F       0.181300
     18 NAX          3.7810    -0.2100    -0.1610 nh         1 41F      -0.652000
     19 CAT          5.0590     0.2840     0.1130 ca         1 41F       0.148600
     20 CAE          5.7120     1.0890    -0.8330 ca         1 41F      -0.175000
     21 CAC          6.9890     1.5670    -0.6010 ca         1 41F      -0.100500
     22 CAB          7.6670     1.2530     0.5720 ca         1 41F      -0.156000
     23 CAD          7.0340     0.4550     1.5100 ca         1 41F      -0.100500
     24 CAF          5.7450    -0.0190     1.2940 ca         1 41F      -0.175000
     25 H1          -2.6420     1.8340     0.2910 ha         1 41F       0.152000
     26 H2          -5.1270    -2.3350    -0.8540 ha         1 41F       0.151000
     27 H3          -2.7010    -2.2580    -1.0400 ha         1 41F       0.159000
     28 H4          -0.7390     0.7760    -0.6000 hn         1 41F       0.316500
     29 H5           1.6000    -2.5990     0.7920 h1         1 41F       0.060700
     30 H6           2.4100    -2.4870    -0.7710 h1         1 41F       0.060700
     31 H7           2.8890    -0.7460     1.6900 h1         1 41F       0.048200
     32 H8           3.9730    -1.9460     0.9740 h1         1 41F       0.048200
     33 H9           1.9710    -0.4710    -2.1750 h1         1 41F       0.060700
     34 H10          0.8870     0.7730    -1.5870 h1         1 41F       0.060700
     35 H11          3.2150     1.4390    -1.3280 h1         1 41F       0.048200
     36 H12          2.4060     1.3460     0.2370 h1         1 41F       0.048200
     37 H13          5.2280     1.3260    -1.7710 ha         1 41F       0.130000
     38 H14          7.4660     2.1820    -1.3550 ha         1 41F       0.129000
     39 H15          8.6680     1.6240     0.7470 ha         1 41F       0.133000
     40 H16          7.5370     0.2000     2.4350 ha         1 41F       0.129000
     41 H17          5.2790    -0.6160     2.0660 ha         1 41F       0.130000
@<TRIPOS>BOND
     1     1     2 ar  
     2     1     9 ar  
     3     1    25 1   
     4     2     3 1   
     5     2     6 ar  
     6     3     4 2   
     7     4     5 1   
     8     5     6 1   
     9     6     7 ar  
    10     7     8 ar  
    11     7    26 1   
    12     8     9 ar  
    13     8    27 1   
    14     9    10 1   
    15    10    11 1   
    16    10    28 1   
    17    11    12 2   
    18    11    13 1   
    19    13    14 1   
    20    13    16 1   
    21    14    15 1   
    22    14    29 1   
    23    14    30 1   
    24    15    18 1   
    25    15    31 1   
    26    15    32 1   
    27    16    17 1   
    28    16    33 1   
    29    16    34 1   
    30    17    18 1   
    31    17    35 1   
    32    17    36 1   
    33    18    19 1   
    34    19    20 ar  
    35    19    24 ar  
    36    20    21 ar  
    37    20    37 1   
    38    21    22 ar  
    39    21    38 1   
    40    22    23 ar  
    41    22    39 1   
    42    23    24 ar  
    43    23    40 1   
    44    24    41 1   
@<TRIPOS>SUBSTRUCTURE
     1 41F         1 TEMP              0 ****  ****    0 ROOT
