@<TRIPOS>MOLECULE
41F
   41    44     1     0     0
SMALL
No Charge or Current Charge


@<TRIPOS>ATOM
      1 CAI         -3.3340     0.8850    -0.5150 ca         1 41F      -0.102000
      2 CAU         -4.7170     0.9150    -0.7520 ca         1 41F       0.042400
      3 NAO         -5.4760     2.0640    -0.9380 nc         1 41F      -0.161400
      4 NAN         -6.7500     1.7450    -1.1400 nd         1 41F      -0.106500
      5 SAQ         -7.1060     0.0930    -1.1210 ss         1 41F       0.243500
      6 CAV         -5.4210    -0.2570    -0.8160 ca         1 41F      -0.218000
      7 CAH         -4.8170    -1.5100    -0.6530 ca         1 41F      -0.054000
      8 CAG         -3.4300    -1.5550    -0.4140 ca         1 41F      -0.082000
      9 CAS         -2.6750    -0.3540    -0.3410 ca         1 41F      -0.013000
     10 NAP         -1.2710    -0.3180    -0.1050 ns         1 41F      -0.164000
     11 CAR         -0.3370    -1.3120     0.1600 c          1 41F       0.664100
     12 OAA         -0.6210    -2.4990     0.2540 o          1 41F      -0.618100
     13 NAW          0.9960    -0.8700     0.3270 n          1 41F      -0.428800
     14 CAK          2.1030    -1.8810     0.3810 c6         1 41F       0.100000
     15 CAM          3.4750    -1.3630     0.8920 c6         1 41F       0.181300
     16 CAJ          1.4150     0.5340    -0.0070 c6         1 41F       0.100000
     17 CAL          2.8130     0.9650     0.5170 c6         1 41F       0.181300
     18 NAX          3.8470    -0.0700     0.2640 nh         1 41F      -0.790400
     19 CAT          5.2010     0.3160     0.1100 ca         1 41F       0.287000
     20 CAE          5.5530     1.2170    -0.9120 ca         1 41F      -0.157000
     21 CAC          6.8900     1.6170    -1.0890 ca         1 41F      -0.082500
     22 CAB          7.8880     1.1170    -0.2380 ca         1 41F      -0.138000
     23 CAD          7.5500     0.2170     0.7860 ca         1 41F      -0.082500
     24 CAF          6.2130    -0.1810     0.9580 ca         1 41F      -0.157000
     25 H1          -2.7760     1.8170    -0.4650 ha         1 41F       0.134000
     26 H2          -5.4010    -2.4260    -0.7100 ha         1 41F       0.133000
     27 H3          -2.9640    -2.5270    -0.2930 ha         1 41F       0.141000
     28 H4          -0.8810     0.6130    -0.1400 hn         1 41F       0.150000
     29 H5           1.8010    -2.7270     1.0150 h1         1 41F       0.060700
     30 H6           2.2450    -2.2800    -0.6330 h1         1 41F       0.060700
     31 H7           3.4250    -1.2450     1.9850 h1         1 41F       0.048200
     32 H8           4.2340    -2.1310     0.6790 h1         1 41F       0.048200
     33 H9           1.4120     0.6390    -1.1010 h1         1 41F       0.060700
     34 H10          0.6830     1.2510     0.3890 h1         1 41F       0.060700
     35 H11          3.0860     1.9200     0.0450 h1         1 41F       0.048200
     36 H12          2.7400     1.1520     1.5990 h1         1 41F       0.048200
     37 H13          4.7880     1.6020    -1.5800 ha         1 41F       0.112000
     38 H14          7.1500     2.3130    -1.8840 ha         1 41F       0.111000
     39 H15          8.9230     1.4250    -0.3730 ha         1 41F       0.115000
     40 H16          8.3230    -0.1690     1.4470 ha         1 41F       0.111000
     41 H17          5.9690    -0.8680     1.7630 ha         1 41F       0.112000
@<TRIPOS>BOND
     1     1     2 ar  
     2     1     9 ar  
     3     1    25 1   
     4     2     3 1   
     5     2     6 ar  
     6     3     4 2   
     7     4     5 1   
     8     5     6 1   
     9     6     7 ar  
    10     7     8 ar  
    11     7    26 1   
    12     8     9 ar  
    13     8    27 1   
    14     9    10 1   
    15    10    11 1   
    16    10    28 1   
    17    11    12 2   
    18    11    13 1   
    19    13    14 1   
    20    13    16 1   
    21    14    15 1   
    22    14    29 1   
    23    14    30 1   
    24    15    18 1   
    25    15    31 1   
    26    15    32 1   
    27    16    17 1   
    28    16    33 1   
    29    16    34 1   
    30    17    18 1   
    31    17    35 1   
    32    17    36 1   
    33    18    19 1   
    34    19    20 ar  
    35    19    24 ar  
    36    20    21 ar  
    37    20    37 1   
    38    21    22 ar  
    39    21    38 1   
    40    22    23 ar  
    41    22    39 1   
    42    23    24 ar  
    43    23    40 1   
    44    24    41 1   
@<TRIPOS>SUBSTRUCTURE
     1 41F         1 TEMP              0 ****  ****    0 ROOT
