@<TRIPOS>MOLECULE
41G
   38    40     1     0     0
SMALL
bcc


@<TRIPOS>ATOM
      1 N1           4.4840     1.6900    -0.2270 ns         1 41G      -0.518400
      2 C2           3.3200     2.1110     0.3540 cc         1 41G       0.782800
      3 N2           3.1870     3.4120     0.5790 nv         1 41G      -0.913800
      4 N3           2.3520     1.2840     0.6940 nd         1 41G      -0.682100
      5 C4           2.6250     0.0160     0.4160 cd         1 41G       0.289100
      6 C5           3.7590    -0.4980    -0.1640 cc         1 41G      -0.321900
      7 C6           4.8230     0.3730    -0.5420 c          1 41G       0.781100
      8 O6           5.8830     0.0890    -1.0600 o          1 41G      -0.573500
      9 N7           3.5920    -1.8630    -0.2580 na         1 41G       0.043900
     10 C8           2.4140    -2.1600     0.2420 cc         1 41G       0.001400
     11 N9           1.8060    -1.0510     0.6760 na         1 41G      -0.005100
     12 CG          -1.9080    -0.3620     0.4700 ca         1 41G      -0.311600
     13 ON2         -4.7540     0.8890    -2.4000 o          1 41G      -0.770800
     14 CZ          -4.6140    -0.0010     1.1210 ca         1 41G       0.281100
     15 C1           0.4660    -0.9630     1.1970 c3         1 41G      -0.090700
     16 C3          -0.5060    -0.5480     0.0930 c          1 41G       0.598700
     17 O2          -0.0880    -0.3950    -1.0340 o          1 41G      -0.554100
     18 CD1         -2.3710    -0.5820     1.7760 ca         1 41G      -0.052000
     19 ON          -6.3460     0.8070    -0.8480 o          1 41G      -0.770800
     20 CD2         -2.8280     0.0440    -0.4990 ca         1 41G       0.031000
     21 CE1         -3.6960    -0.4080     2.1010 ca         1 41G      -0.245000
     22 CE2         -4.1630     0.2310    -0.2010 ca         1 41G      -0.303600
     23 CM7          4.5500    -2.8160    -0.7950 c3         1 41G       0.020600
     24 H1           5.1820     2.3850    -0.4620 hn         1 41G       0.344500
     25 H21N         3.8760     4.0850     0.2910 hn         1 41G       0.475300
     26 H22N         2.3270     3.7560     0.9700 hn         1 41G       0.475300
     27 HM71         5.4560    -2.7990    -0.1960 h1         1 41G       0.086700
     28 HM72         4.1100    -3.8070    -0.7590 h1         1 41G       0.086700
     29 HM73         4.7820    -2.5580    -1.8230 h1         1 41G       0.086700
     30 H8           2.0020    -3.1530     0.3080 h5         1 41G       0.240000
     31 H1'1         0.1880    -1.9330     1.6100 h1         1 41G       0.102700
     32 H1'2         0.4570    -0.2460     2.0170 h1         1 41G       0.102700
     33 HD2         -2.4930     0.2230    -1.5140 ha         1 41G       0.162000
     34 HD1         -1.6960    -0.8960     2.5620 ha         1 41G       0.091000
     35 HE1         -4.0400    -0.5830     3.1120 ha         1 41G       0.137000
     36 HH          -6.3100     0.4680     0.5180 ho         1 41G       0.526000
     37 OH          -5.8810     0.1670     1.4300 oh         1 41G      -0.570100
     38 CN          -5.1440     0.6780    -1.2530 c          1 41G       0.937200
@<TRIPOS>BOND
     1     1     2 1   
     2     1     7 1   
     3     1    24 1   
     4     2     3 1   
     5     2     4 2   
     6     3    25 1   
     7     3    26 1   
     8     4     5 1   
     9     5     6 2   
    10     5    11 1   
    11     6     7 1   
    12     6     9 1   
    13     7     8 2   
    14     9    10 2   
    15     9    23 1   
    16    10    11 1   
    17    10    30 1   
    18    11    15 1   
    19    12    16 1   
    20    12    18 ar  
    21    12    20 ar  
    22    13    38 1   
    23    14    21 ar  
    24    14    22 ar  
    25    14    37 1   
    26    15    16 1   
    27    15    31 1   
    28    15    32 1   
    29    16    17 2   
    30    18    21 ar  
    31    18    34 1   
    32    19    38 1   
    33    20    22 ar  
    34    20    33 1   
    35    21    35 1   
    36    22    38 1   
    37    23    27 1   
    38    23    28 1   
    39    23    29 1   
    40    36    37 1   
@<TRIPOS>SUBSTRUCTURE
     1 41G         1 TEMP              0 ****  ****    0 ROOT
