@<TRIPOS>MOLECULE
41G
   38    40     1     0     0
SMALL
No Charge or Current Charge


@<TRIPOS>ATOM
      1 N1           4.5370     1.7380    -0.1230 ns         1 41G      -0.451400
      2 C2           3.3310     2.0730     0.3650 cc         1 41G       0.782800
      3 N2           3.1310     3.3570     0.5850 nv         1 41G      -1.024200
      4 N3           2.3330     1.2740     0.6510 nd         1 41G      -0.682100
      5 C4           2.6200    -0.0600     0.3870 cd         1 41G       0.238400
      6 C5           3.8300    -0.4720    -0.1120 cc         1 41G      -0.372600
      7 C6           4.9010     0.4720    -0.4000 c          1 41G       0.638600
      8 O6           6.0010     0.1810    -0.8360 o          1 41G      -0.498000
      9 N7           3.7630    -1.8650    -0.2470 na         1 41G       0.065300
     10 C8           2.5070    -2.2880     0.1740 cc         1 41G      -0.031300
     11 N9           1.8220    -1.1650     0.5590 na         1 41G       0.067000
     12 CG          -2.0160    -0.4610     0.4330 ca         1 41G      -0.311600
     13 ON2         -4.8480     0.9680    -2.3420 o          1 41G      -0.665500
     14 CZ          -4.6590     0.1590     1.1920 ca         1 41G       0.281100
     15 C1           0.4420    -1.1290     1.0680 c3         1 41G      -0.061400
     16 C3          -0.6030    -0.7880    -0.0020 c          1 41G       0.598700
     17 O2          -0.3110    -0.7900    -1.1940 o          1 41G      -0.554100
     18 CD1         -2.4320    -0.6260     1.7720 ca         1 41G      -0.034000
     19 ON          -6.3820     1.1000    -0.8360 o          1 41G      -0.665500
     20 CD2         -2.9460     0.0150    -0.5200 ca         1 41G       0.049000
     21 CE1         -3.7470    -0.3150     2.1400 ca         1 41G      -0.227000
     22 CE2         -4.2750     0.3310    -0.1520 ca         1 41G      -0.303600
     23 CM7          4.8330    -2.7380    -0.7490 c3         1 41G       0.049900
     24 H1           5.2310     2.4510    -0.2640 hn         1 41G       0.344500
     25 H21N         3.5500     3.9910    -0.0830 hn         1 41G       0.530500
     26 H22N         2.1660     3.5680     0.8040 hn         1 41G       0.530500
     27 HM71         5.7160    -2.6410    -0.1070 h1         1 41G       0.086700
     28 HM72         4.4990    -3.7820    -0.7480 h1         1 41G       0.086700
     29 HM73         5.0960    -2.4440    -1.7730 h1         1 41G       0.086700
     30 H8           2.1400    -3.3080     0.1900 h5         1 41G       0.222000
     31 H1'1         0.1800    -2.1000     1.5020 h1         1 41G       0.102700
     32 H1'2         0.3780    -0.3690     1.8550 h1         1 41G       0.102700
     33 HD2         -2.6310     0.1440    -1.5550 ha         1 41G       0.144000
     34 HD1         -1.7540    -0.9970     2.5360 ha         1 41G       0.073000
     35 HE1         -4.0620    -0.4440     3.1720 ha         1 41G       0.119000
     36 HH          -6.3750     0.7590     0.7600 ho         1 41G       0.565000
     37 OH          -5.9220     0.4470     1.5950 oh         1 41G      -0.609100
     38 CN          -5.2410     0.8390    -1.1940 c          1 41G       0.726600
@<TRIPOS>BOND
     1     1     2 1   
     2     1     7 1   
     3     1    24 1   
     4     2     3 1   
     5     2     4 2   
     6     3    25 1   
     7     3    26 1   
     8     4     5 1   
     9     5     6 2   
    10     5    11 1   
    11     6     7 1   
    12     6     9 1   
    13     7     8 2   
    14     9    10 2   
    15     9    23 1   
    16    10    11 1   
    17    10    30 1   
    18    11    15 1   
    19    12    16 1   
    20    12    18 ar  
    21    12    20 ar  
    22    13    38 1   
    23    14    21 ar  
    24    14    22 ar  
    25    14    37 1   
    26    15    16 1   
    27    15    31 1   
    28    15    32 1   
    29    16    17 2   
    30    18    21 ar  
    31    18    34 1   
    32    19    38 1   
    33    20    22 ar  
    34    20    33 1   
    35    21    35 1   
    36    22    38 1   
    37    23    27 1   
    38    23    28 1   
    39    23    29 1   
    40    36    37 1   
@<TRIPOS>SUBSTRUCTURE
     1 41G         1 TEMP              0 ****  ****    0 ROOT
