@<TRIPOS>MOLECULE
41H
   25    25     1     0     0
SMALL
bcc


@<TRIPOS>ATOM
      1 N           46.6990    -7.1690    68.2250 n8         1 41H      -0.888800
      2 C           44.6980    -8.3460    69.1840 c          1 41H       0.898600
      3 O           43.5730    -7.9700    69.5700 o          1 41H      -0.837300
      4 CA          45.3270    -7.6040    67.9800 c3         1 41H       0.023500
      5 CB          45.3000    -8.5110    66.7370 c3         1 41H      -0.005400
      6 CG          45.8810    -7.8110    65.5330 ca         1 41H      -0.016300
      7 CD1         45.2390    -6.7150    64.9570 ca         1 41H      -0.125000
      8 CD2         47.0710    -8.2480    64.9590 ca         1 41H      -0.125000
      9 CE1         45.7720    -6.0760    63.8460 ca         1 41H      -0.139500
     10 CE2         47.6090    -7.6150    63.8450 ca         1 41H      -0.139500
     11 CZ          46.9610    -6.5240    63.2830 ca         1 41H      -0.159000
     12 CW          43.8980    -9.0420    66.4360 c3         1 41H      -0.073100
     13 H1          46.6980    -6.4940    68.9800 hn         1 41H       0.327300
     14 H2          47.2100    -7.9670    68.5890 hn         1 41H       0.327300
     15 H4          44.7290    -6.7120    67.7600 h1         1 41H       0.041700
     16 H5          45.9400    -9.3720    66.9600 hc         1 41H       0.057700
     17 H6          44.3110    -6.3500    65.3820 ha         1 41H       0.128500
     18 H7          47.5860    -9.1000    65.3880 ha         1 41H       0.128500
     19 H8          45.2560    -5.2250    63.4170 ha         1 41H       0.109500
     20 H9          48.5360    -7.9750    63.4160 ha         1 41H       0.109500
     21 H10         47.3760    -6.0270    62.4160 ha         1 41H       0.108000
     22 H11         43.5320    -9.6830    67.2370 hc         1 41H       0.029033
     23 H12         43.1780    -8.2320    66.3050 hc         1 41H       0.029033
     24 H13         43.8980    -9.6340    65.5200 hc         1 41H       0.029033
     25 O1          45.3820    -9.2770    69.6630 o          1 41H      -0.837300
@<TRIPOS>BOND
     1     1     4 1   
     2     1    13 1   
     3     1    14 1   
     4     2     3 1   
     5     2     4 1   
     6     2    25 1   
     7     4     5 1   
     8     4    15 1   
     9     5     6 1   
    10     5    12 1   
    11     5    16 1   
    12     6     7 ar  
    13     6     8 ar  
    14     7     9 ar  
    15     7    17 1   
    16     8    10 ar  
    17     8    18 1   
    18     9    11 ar  
    19     9    19 1   
    20    10    11 ar  
    21    10    20 1   
    22    11    21 1   
    23    12    22 1   
    24    12    23 1   
    25    12    24 1   
@<TRIPOS>SUBSTRUCTURE
     1 41H         1 TEMP              0 ****  ****    0 ROOT
