@<TRIPOS>MOLECULE
41J
  113   120     1     0     0
SMALL
No Charge or Current Charge


@<TRIPOS>ATOM
      1 C1          64.5540    -5.1170    25.5460 c2         1 41J      -0.302000
      2 C2          64.9570    -6.1990    24.8410 ce         1 41J      -0.184000
      3 C6          72.4090    -5.9740    20.7700 c3         1 41J      -0.089100
      4 C8          65.7730    -6.1840    23.6120 ce         1 41J      -0.071200
      5 C10         66.8110    -4.8970    21.6420 c6         1 41J      -0.072400
      6 C13         66.1890    -7.3330    23.0340 c2         1 41J      -0.223200
      7 C15         67.9220    -8.7150    21.7600 c5         1 41J       0.149300
      8 C17         68.5890   -10.3690    20.2390 c5         1 41J       0.387000
      9 C18         69.9390   -10.8640    19.6730 c3         1 41J      -0.069400
     10 C21         71.2570   -10.2810    20.2520 c6         1 41J       0.193300
     11 C22         71.1160    -6.9130    23.5810 c3         1 41J      -0.087100
     12 O52         76.5190    -7.9650    18.6580 oh         1 41J      -0.719000
     13 C51         75.4530    -8.1220    17.7060 c6         1 41J       0.180000
     14 C53         76.1240    -8.2550    16.3030 c3         1 41J      -0.080100
     15 C50         74.5630    -6.8530    17.7630 c6         1 41J      -0.103400
     16 C49         73.3070    -7.0000    16.8740 c6         1 41J      -0.102400
     17 C48         72.5270    -8.2990    17.2060 c6         1 41J       0.177300
     18 O47         73.3820    -9.4670    17.2300 os         1 41J      -0.468000
     19 C43         74.5730    -9.3970    18.0600 c5         1 41J       0.369000
     20 O44         74.1630    -9.3850    19.4460 os         1 41J      -0.509000
     21 C42         75.3030   -10.7630    17.9460 c5         1 41J      -0.087400
     22 C55         74.5000   -11.6850    18.9100 c5         1 41J      -0.090400
     23 C23         73.7030   -10.7000    19.8290 c5         1 41J       0.403000
     24 O48         72.3120   -10.8470    19.4360 os         1 41J      -0.480000
     25 C80         73.9090   -10.9350    21.3490 c6         1 41J      -0.091400
     26 C60         72.8940   -10.1440    22.1940 c6         1 41J      -0.073400
     27 C81         71.4690   -10.5350    21.7660 c6         1 41J      -0.103400
     28 O65         68.3260   -10.9480    21.5250 os         1 41J      -0.438000
     29 O16         68.6250    -8.9490    20.5060 os         1 41J      -0.472000
     30 C64         67.4060   -10.7470    19.2930 c6         1 41J      -0.110400
     31 C63         66.0330   -10.2660    19.8330 c6         1 41J      -0.047700
     32 C67         64.8400   -10.8700    19.0390 c3         1 41J      -0.079100
     33 C62         65.9350   -10.4680    21.3790 c6         1 41J       0.155300
     34 O66         65.5950   -11.8240    21.7000 oh         1 41J      -0.702000
     35 C37         71.3510    -8.5930    16.2380 c3         1 41J      -0.033200
     36 C36         70.2420    -7.5490    16.2710 c2         1 41J      -0.135400
     37 C38         70.2080    -6.6660    15.0310 c3         1 41J      -0.049900
     38 C35         69.3870    -7.4550    17.3070 c2         1 41J      -0.197200
     39 C34         68.2400    -6.4680    17.4600 c3         1 41J      -0.023200
     40 C33         67.5960    -6.4770    18.8740 c3         1 41J      -0.116700
     41 C32         68.4500    -5.9340    20.0390 c2         1 41J       0.458300
     42 N31         69.4940    -5.2370    19.7070 n2         1 41J      -0.602900
     43 C30         70.3510    -4.4630    20.6070 c3         1 41J       0.116800
     44 C29         71.2140    -5.3560    21.5340 c3         1 41J      -0.063700
     45 C46         70.3860    -6.4280    22.3020 c3         1 41J      -0.068700
     46 C28         68.9530    -5.9190    22.6350 c3         1 41J      -0.067400
     47 C27         67.8460    -6.0630    21.4960 c6         1 41J      -0.109300
     48 C9          66.1500    -4.8120    23.0400 c6         1 41J      -0.040200
     49 C12         67.0320    -7.4140    21.7500 c6         1 41J      -0.012500
     50 C61         67.2900   -10.1090    22.0800 c5         1 41J       0.091300
     51 H1          64.8060    -4.0950    25.2640 ha         1 41J       0.164500
     52 H2          63.9510    -5.2260    26.4490 ha         1 41J       0.164500
     53 H3          64.6660    -7.1900    25.1990 ha         1 41J       0.168000
     54 H5          72.0590    -6.6930    20.0210 hc         1 41J       0.038700
     55 H6          72.9780    -5.1920    20.2540 hc         1 41J       0.038700
     56 H7          67.2860    -3.9340    21.4110 hc         1 41J       0.048200
     57 H8          66.0150    -5.0200    20.8950 hc         1 41J       0.048200
     58 H9          65.8990    -8.2810    23.4860 ha         1 41J       0.166000
     59 H10         68.6880    -8.5650    22.5300 h1         1 41J       0.063700
     60 H11         69.9680   -11.9550    19.7690 hc         1 41J       0.070700
     61 H12         69.9430   -10.6730    18.5950 hc         1 41J       0.070700
     62 H13         71.2570    -9.1940    20.0870 h1         1 41J       0.055700
     63 H14         70.5580    -7.7270    24.0600 hc         1 41J       0.032033
     64 H15         72.1180    -7.2910    23.3550 hc         1 41J       0.032033
     65 H16         71.2150    -6.0960    24.3060 hc         1 41J       0.032033
     66 H17         76.1170    -8.2000    19.5260 ho         1 41J       0.514000
     67 H18         76.8690    -9.0590    16.2890 hc         1 41J       0.046033
     68 H19         75.3910    -8.4810    15.5200 hc         1 41J       0.046033
     69 H20         76.6400    -7.3300    16.0190 hc         1 41J       0.046033
     70 H21         75.1360    -5.9660    17.4580 hc         1 41J       0.052200
     71 H22         74.2540    -6.6730    18.8000 hc         1 41J       0.052200
     72 H23         73.5860    -6.9920    15.8120 hc         1 41J       0.053700
     73 H24         72.6530    -6.1310    17.0240 hc         1 41J       0.053700
     74 H25         72.1010    -8.1860    18.2120 h1         1 41J       0.051700
     75 H26         75.3150   -11.1440    16.9200 hc         1 41J       0.069700
     76 H27         76.3470   -10.6800    18.2680 hc         1 41J       0.069700
     77 H28         73.8270   -12.3480    18.3530 hc         1 41J       0.064700
     78 H29         75.1680   -12.3370    19.4840 hc         1 41J       0.064700
     79 H30         73.8130   -12.0070    21.5680 hc         1 41J       0.054200
     80 H31         74.9320   -10.6530    21.6300 hc         1 41J       0.054200
     81 H32         73.0420   -10.3530    23.2630 hc         1 41J       0.045700
     82 H33         73.0490    -9.0660    22.0520 hc         1 41J       0.045700
     83 H34         70.7410    -9.9560    22.3480 hc         1 41J       0.053200
     84 H35         71.2850   -11.5930    21.9970 hc         1 41J       0.053200
     85 H36         67.3930   -11.8380    19.1660 hc         1 41J       0.064700
     86 H37         67.5770   -10.3230    18.2950 hc         1 41J       0.064700
     87 H38         65.9590    -9.1940    19.6330 hc         1 41J       0.048700
     88 H39         63.8820   -10.5000    19.4240 hc         1 41J       0.038700
     89 H40         64.8960   -10.5970    17.9780 hc         1 41J       0.038700
     90 H41         64.8240   -11.9650    19.0960 hc         1 41J       0.038700
     91 H42         65.1470    -9.8000    21.7580 h1         1 41J       0.036700
     92 H43         66.4410   -12.3240    21.6350 ho         1 41J       0.499000
     93 H44         70.9200    -9.5640    16.5090 hc         1 41J       0.054200
     94 H45         71.7340    -8.7250    15.2190 hc         1 41J       0.054200
     95 H46         69.3980    -5.9290    15.0590 hc         1 41J       0.036367
     96 H47         71.1460    -6.1120    14.9150 hc         1 41J       0.036367
     97 H48         70.0630    -7.2680    14.1260 hc         1 41J       0.036367
     98 H49         69.4980    -8.1360    18.1510 ha         1 41J       0.177000
     99 H50         68.5630    -5.4500    17.2080 hc         1 41J       0.051200
    100 H51         67.4590    -6.7230    16.7330 hc         1 41J       0.051200
    101 H52         66.6720    -5.8900    18.8170 hc         1 41J       0.050700
    102 H53         67.2810    -7.5040    19.0470 hc         1 41J       0.050700
    103 H54         71.0160    -3.8150    20.0210 h1         1 41J       0.043700
    104 H55         69.7420    -3.7820    21.2170 h1         1 41J       0.043700
    105 H56         71.6410    -4.6730    22.2790 hc         1 41J       0.043700
    106 H57         70.2980    -7.3000    21.6460 hc         1 41J       0.071700
    107 H58         69.0380    -4.8770    22.9660 hc         1 41J       0.043700
    108 H59         68.6120    -6.4340    23.5400 hc         1 41J       0.043700
    109 H60         66.8280    -4.3060    23.7400 hc         1 41J       0.052200
    110 H61         65.2570    -4.1770    22.9640 hc         1 41J       0.052200
    111 H62         66.2810    -7.5130    20.9620 hc         1 41J       0.068700
    112 H63         67.2060   -10.2840    23.1610 h1         1 41J       0.082700
    113 H4          73.0970    -6.4910    21.4480 hc         1 41J       0.038700
@<TRIPOS>BOND
     1     1     2 2   
     2     1    51 1   
     3     1    52 1   
     4     2     4 1   
     5     2    53 1   
     6     3    44 1   
     7     3    54 1   
     8     3    55 1   
     9     3   113 1   
    10     4     6 2   
    11     4    48 1   
    12     5    47 1   
    13     5    48 1   
    14     5    56 1   
    15     5    57 1   
    16     6    49 1   
    17     6    58 1   
    18     7    29 1   
    19     7    49 1   
    20     7    50 1   
    21     7    59 1   
    22     8     9 1   
    23     8    28 1   
    24     8    29 1   
    25     8    30 1   
    26     9    10 1   
    27     9    60 1   
    28     9    61 1   
    29    10    24 1   
    30    10    27 1   
    31    10    62 1   
    32    11    45 1   
    33    11    63 1   
    34    11    64 1   
    35    11    65 1   
    36    12    13 1   
    37    12    66 1   
    38    13    14 1   
    39    13    15 1   
    40    13    19 1   
    41    14    67 1   
    42    14    68 1   
    43    14    69 1   
    44    15    16 1   
    45    15    70 1   
    46    15    71 1   
    47    16    17 1   
    48    16    72 1   
    49    16    73 1   
    50    17    18 1   
    51    17    35 1   
    52    17    74 1   
    53    18    19 1   
    54    19    20 1   
    55    19    21 1   
    56    20    23 1   
    57    21    22 1   
    58    21    75 1   
    59    21    76 1   
    60    22    23 1   
    61    22    77 1   
    62    22    78 1   
    63    23    24 1   
    64    23    25 1   
    65    25    26 1   
    66    25    79 1   
    67    25    80 1   
    68    26    27 1   
    69    26    81 1   
    70    26    82 1   
    71    27    83 1   
    72    27    84 1   
    73    28    50 1   
    74    30    31 1   
    75    30    85 1   
    76    30    86 1   
    77    31    32 1   
    78    31    33 1   
    79    31    87 1   
    80    32    88 1   
    81    32    89 1   
    82    32    90 1   
    83    33    34 1   
    84    33    50 1   
    85    33    91 1   
    86    34    92 1   
    87    35    36 1   
    88    35    93 1   
    89    35    94 1   
    90    36    37 1   
    91    36    38 2   
    92    37    95 1   
    93    37    96 1   
    94    37    97 1   
    95    38    39 1   
    96    38    98 1   
    97    39    40 1   
    98    39    99 1   
    99    39   100 1   
   100    40    41 1   
   101    40   101 1   
   102    40   102 1   
   103    41    42 2   
   104    41    47 1   
   105    42    43 1   
   106    43    44 1   
   107    43   103 1   
   108    43   104 1   
   109    44    45 1   
   110    44   105 1   
   111    45    46 1   
   112    45   106 1   
   113    46    47 1   
   114    46   107 1   
   115    46   108 1   
   116    47    49 1   
   117    48   109 1   
   118    48   110 1   
   119    49   111 1   
   120    50   112 1   
@<TRIPOS>SUBSTRUCTURE
     1 41J         1 TEMP              0 ****  ****    0 ROOT
