@<TRIPOS>MOLECULE
41J
  113   120     1     0     0
SMALL
abcg2


@<TRIPOS>ATOM
      1 C1          64.6680    -5.3150    25.4820 c2         1 41J      -0.302000
      2 C2          65.1090    -6.3480    24.7620 ce         1 41J      -0.184000
      3 C6          72.2940    -5.9270    20.5870 c3         1 41J      -0.089100
      4 C8          65.8980    -6.2580    23.5360 ce         1 41J      -0.071200
      5 C10         66.8740    -4.9950    21.6020 c6         1 41J      -0.072400
      6 C13         66.2990    -7.3820    22.9290 c2         1 41J      -0.223200
      7 C15         68.0160    -8.7060    21.7500 c5         1 41J       0.149300
      8 C17         68.6470   -10.3610    20.2740 c5         1 41J       0.387000
      9 C18         69.9630   -10.8890    19.7320 c3         1 41J      -0.069400
     10 C21         71.2640   -10.3110    20.2750 c6         1 41J       0.193300
     11 C22         71.1660    -6.8580    23.4650 c3         1 41J      -0.087100
     12 O52         76.2890    -8.1200    18.8490 oh         1 41J      -0.719000
     13 C51         75.2980    -8.1760    17.8420 c6         1 41J       0.180000
     14 C53         76.0380    -8.2530    16.5130 c3         1 41J      -0.080100
     15 C50         74.4120    -6.9270    17.8940 c6         1 41J      -0.103400
     16 C49         73.2080    -7.0330    16.9660 c6         1 41J      -0.102400
     17 C48         72.4620    -8.3300    17.2190 c6         1 41J       0.177300
     18 O47         73.3560    -9.4350    17.1220 os         1 41J      -0.468000
     19 C43         74.4160    -9.4340    18.0350 c5         1 41J       0.369000
     20 O44         73.9470    -9.4290    19.3630 os         1 41J      -0.509000
     21 C42         75.1560   -10.7620    17.9080 c5         1 41J      -0.087400
     22 C55         74.4250   -11.6820    18.8820 c5         1 41J      -0.090400
     23 C23         73.6050   -10.7400    19.7810 c5         1 41J       0.403000
     24 O48         72.2560   -11.0130    19.5270 os         1 41J      -0.480000
     25 C80         73.9120   -10.8630    21.2670 c6         1 41J      -0.091400
     26 C60         72.9270   -10.0710    22.1150 c6         1 41J      -0.073400
     27 C81         71.4980   -10.4740    21.7670 c6         1 41J      -0.103400
     28 O65         68.3430   -10.9350    21.5210 os         1 41J      -0.438000
     29 O16         68.7000    -8.9640    20.5320 os         1 41J      -0.472000
     30 C64         67.5050   -10.6780    19.3070 c6         1 41J      -0.110400
     31 C63         66.1530   -10.1870    19.8250 c6         1 41J      -0.047700
     32 C67         64.9970   -10.8050    19.0510 c3         1 41J      -0.079100
     33 C62         66.0210   -10.3580    21.3410 c6         1 41J       0.155300
     34 O66         65.6330   -11.6830    21.6240 oh         1 41J      -0.702000
     35 C37         71.3190    -8.5910    16.2460 c3         1 41J      -0.033200
     36 C36         70.2560    -7.5140    16.2940 c2         1 41J      -0.135400
     37 C38         70.2230    -6.5680    15.1300 c3         1 41J      -0.049900
     38 C35         69.4160    -7.4340    17.3270 c2         1 41J      -0.197200
     39 C34         68.2900    -6.4490    17.5010 c3         1 41J      -0.023200
     40 C33         67.6380    -6.5360    18.8740 c3         1 41J      -0.116700
     41 C32         68.4600    -5.9700    20.0160 c2         1 41J       0.458300
     42 N31         69.4450    -5.2530    19.6710 n2         1 41J      -0.602900
     43 C30         70.2380    -4.4910    20.6070 c3         1 41J       0.116800
     44 C29         71.1800    -5.3500    21.4490 c3         1 41J      -0.063700
     45 C46         70.4160    -6.4520    22.1980 c3         1 41J      -0.068700
     46 C28         68.9970    -6.0040    22.5540 c3         1 41J      -0.067400
     47 C27         67.9140    -6.1310    21.4490 c6         1 41J      -0.109300
     48 C9          66.2760    -4.9130    22.9990 c6         1 41J      -0.040200
     49 C12         67.1290    -7.4610    21.6730 c6         1 41J      -0.012500
     50 C61         67.3550   -10.0640    22.0410 c5         1 41J       0.091300
     51 H1          64.8570    -4.2850    25.2050 ha         1 41J       0.164500
     52 H2          64.0980    -5.4730    26.3870 ha         1 41J       0.164500
     53 H3          64.8850    -7.3540    25.1040 ha         1 41J       0.168000
     54 H5          71.8780    -6.4940    19.7530 hc         1 41J       0.038700
     55 H6          72.9220    -5.1360    20.1710 hc         1 41J       0.038700
     56 H7          67.3330    -4.0360    21.3510 hc         1 41J       0.048200
     57 H8          66.0690    -5.1510    20.8770 hc         1 41J       0.048200
     58 H9          65.9910    -8.3230    23.3740 ha         1 41J       0.166000
     59 H10         68.7570    -8.5440    22.5440 h1         1 41J       0.063700
     60 H11         69.9620   -11.9740    19.8730 hc         1 41J       0.070700
     61 H12         69.9650   -10.7270    18.6500 hc         1 41J       0.070700
     62 H13         71.3080    -9.2420    20.0290 h1         1 41J       0.055700
     63 H14         70.7070    -7.7280    23.9420 hc         1 41J       0.032033
     64 H15         72.2070    -7.1140    23.2610 hc         1 41J       0.032033
     65 H16         71.1630    -6.0440    24.1940 hc         1 41J       0.032033
     66 H17         75.8420    -8.1430    19.7030 ho         1 41J       0.514000
     67 H18         76.7160    -9.1070    16.4770 hc         1 41J       0.046033
     68 H19         75.3490    -8.3390    15.6750 hc         1 41J       0.046033
     69 H20         76.6320    -7.3490    16.3630 hc         1 41J       0.046033
     70 H21         75.0130    -6.0490    17.6450 hc         1 41J       0.052200
     71 H22         74.0610    -6.7820    18.9190 hc         1 41J       0.052200
     72 H23         73.5230    -6.9840    15.9180 hc         1 41J       0.053700
     73 H24         72.5310    -6.1910    17.1310 hc         1 41J       0.053700
     74 H25         72.0340    -8.2920    18.2290 h1         1 41J       0.051700
     75 H26         75.1580   -11.1350    16.8850 hc         1 41J       0.069700
     76 H27         76.1940   -10.6300    18.2130 hc         1 41J       0.069700
     77 H28         73.7610   -12.3780    18.3710 hc         1 41J       0.064700
     78 H29         75.1230   -12.2750    19.4740 hc         1 41J       0.064700
     79 H30         73.8500   -11.9210    21.5380 hc         1 41J       0.054200
     80 H31         74.9440   -10.5520    21.4500 hc         1 41J       0.054200
     81 H32         73.1220   -10.2430    23.1750 hc         1 41J       0.045700
     82 H33         73.0580    -8.9980    21.9450 hc         1 41J       0.045700
     83 H34         70.7880    -9.8590    22.3230 hc         1 41J       0.053200
     84 H35         71.3200   -11.5140    22.0620 hc         1 41J       0.053200
     85 H36         67.4880   -11.7610    19.1510 hc         1 41J       0.064700
     86 H37         67.7110   -10.2260    18.3330 hc         1 41J       0.064700
     87 H38         66.1030    -9.1110    19.6420 hc         1 41J       0.048700
     88 H39         64.0350   -10.4300    19.4030 hc         1 41J       0.038700
     89 H40         65.0810   -10.5500    17.9930 hc         1 41J       0.038700
     90 H41         64.9870   -11.8910    19.1290 hc         1 41J       0.038700
     91 H42         65.2560    -9.6550    21.7010 h1         1 41J       0.036700
     92 H43         65.4620   -11.7560    22.5680 ho         1 41J       0.499000
     93 H44         70.8840    -9.5640    16.4910 hc         1 41J       0.054200
     94 H45         71.7230    -8.6730    15.2320 hc         1 41J       0.054200
     95 H46         69.4310    -5.8250    15.2100 hc         1 41J       0.036367
     96 H47         71.1730    -6.0350    15.0290 hc         1 41J       0.036367
     97 H48         70.0770    -7.1110    14.1930 hc         1 41J       0.036367
     98 H49         69.5210    -8.1710    18.1210 ha         1 41J       0.177000
     99 H50         68.6310    -5.4300    17.3150 hc         1 41J       0.051200
    100 H51         67.5130    -6.6530    16.7560 hc         1 41J       0.051200
    101 H52         66.6880    -5.9870    18.8590 hc         1 41J       0.050700
    102 H53         67.3700    -7.5730    19.0600 hc         1 41J       0.050700
    103 H54         70.8390    -3.7810    20.0310 h1         1 41J       0.043700
    104 H55         69.6110    -3.8800    21.2630 h1         1 41J       0.043700
    105 H56         71.6270    -4.6760    22.1910 hc         1 41J       0.043700
    106 H57         70.3680    -7.3280    21.5420 hc         1 41J       0.071700
    107 H58         69.0460    -4.9730    22.9160 hc         1 41J       0.043700
    108 H59         68.6540    -6.5720    23.4230 hc         1 41J       0.043700
    109 H60         66.9730    -4.4320    23.6930 hc         1 41J       0.052200
    110 H61         65.3980    -4.2620    22.9720 hc         1 41J       0.052200
    111 H62         66.4220    -7.5920    20.8480 hc         1 41J       0.068700
    112 H63         67.2660   -10.2460    23.1150 h1         1 41J       0.082700
    113 H4          72.9440    -6.5980    21.1500 hc         1 41J       0.038700
@<TRIPOS>BOND
     1     1     2 2   
     2     1    51 1   
     3     1    52 1   
     4     2     4 1   
     5     2    53 1   
     6     3    44 1   
     7     3    54 1   
     8     3    55 1   
     9     3   113 1   
    10     4     6 2   
    11     4    48 1   
    12     5    47 1   
    13     5    48 1   
    14     5    56 1   
    15     5    57 1   
    16     6    49 1   
    17     6    58 1   
    18     7    29 1   
    19     7    49 1   
    20     7    50 1   
    21     7    59 1   
    22     8     9 1   
    23     8    28 1   
    24     8    29 1   
    25     8    30 1   
    26     9    10 1   
    27     9    60 1   
    28     9    61 1   
    29    10    24 1   
    30    10    27 1   
    31    10    62 1   
    32    11    45 1   
    33    11    63 1   
    34    11    64 1   
    35    11    65 1   
    36    12    13 1   
    37    12    66 1   
    38    13    14 1   
    39    13    15 1   
    40    13    19 1   
    41    14    67 1   
    42    14    68 1   
    43    14    69 1   
    44    15    16 1   
    45    15    70 1   
    46    15    71 1   
    47    16    17 1   
    48    16    72 1   
    49    16    73 1   
    50    17    18 1   
    51    17    35 1   
    52    17    74 1   
    53    18    19 1   
    54    19    20 1   
    55    19    21 1   
    56    20    23 1   
    57    21    22 1   
    58    21    75 1   
    59    21    76 1   
    60    22    23 1   
    61    22    77 1   
    62    22    78 1   
    63    23    24 1   
    64    23    25 1   
    65    25    26 1   
    66    25    79 1   
    67    25    80 1   
    68    26    27 1   
    69    26    81 1   
    70    26    82 1   
    71    27    83 1   
    72    27    84 1   
    73    28    50 1   
    74    30    31 1   
    75    30    85 1   
    76    30    86 1   
    77    31    32 1   
    78    31    33 1   
    79    31    87 1   
    80    32    88 1   
    81    32    89 1   
    82    32    90 1   
    83    33    34 1   
    84    33    50 1   
    85    33    91 1   
    86    34    92 1   
    87    35    36 1   
    88    35    93 1   
    89    35    94 1   
    90    36    37 1   
    91    36    38 2   
    92    37    95 1   
    93    37    96 1   
    94    37    97 1   
    95    38    39 1   
    96    38    98 1   
    97    39    40 1   
    98    39    99 1   
    99    39   100 1   
   100    40    41 1   
   101    40   101 1   
   102    40   102 1   
   103    41    42 2   
   104    41    47 1   
   105    42    43 1   
   106    43    44 1   
   107    43   103 1   
   108    43   104 1   
   109    44    45 1   
   110    44   105 1   
   111    45    46 1   
   112    45   106 1   
   113    46    47 1   
   114    46   107 1   
   115    46   108 1   
   116    47    49 1   
   117    48   109 1   
   118    48   110 1   
   119    49   111 1   
   120    50   112 1   
@<TRIPOS>SUBSTRUCTURE
     1 41J         1 TEMP              0 ****  ****    0 ROOT
