@<TRIPOS>MOLECULE
41K
   19    19     1     0     0
SMALL
No Charge or Current Charge


@<TRIPOS>ATOM
      1 OAA         -3.4990    -0.6960    -0.2580 o          1 41K      -0.730000
      2 CAE         -2.3710    -0.8360     0.2110 c          1 41K       0.735000
      3 OAD         -2.1680    -1.6590     1.1030 o          1 41K      -0.730000
      4 CAF         -1.1140     0.0250    -0.3690 c5         1 41K       0.281200
      5 CAB         -1.4250     0.5220    -1.8130 c3         1 41K      -0.040100
      6 N            0.1850    -0.7320    -0.3190 n7         1 41K      -0.830400
      7 SAK         -0.7840     1.5250     0.7310 ss         1 41K      -0.697000
      8 CB           1.0510     1.2340     0.7860 c5         1 41K       0.086600
      9 CA           1.3340     0.2470    -0.3660 c5         1 41K       0.036500
     10 C            2.7830    -0.3510    -0.1360 c          1 41K       0.725000
     11 O            2.9630    -1.1720     0.7560 o          1 41K      -0.743500
     12 OXT          3.6880    -0.0270    -0.8960 o          1 41K      -0.743500
     13 H2          -2.3330     1.1350    -1.8340 hc         1 41K       0.016700
     14 H3          -0.6200     1.1370    -2.2280 hc         1 41K       0.016700
     15 H4          -1.5800    -0.3240    -2.4930 hc         1 41K       0.016700
     16 H5           0.2060    -1.2140     0.5890 hn         1 41K       0.474000
     17 H7           1.6050     2.1750     0.6690 h1         1 41K       0.044700
     18 H8           1.3140     0.8000     1.7610 h1         1 41K       0.044700
     19 H9           1.3480     0.7760    -1.3280 h1         1 41K       0.037700
@<TRIPOS>BOND
     1     1     2 1   
     2     2     3 1   
     3     2     4 1   
     4     4     5 1   
     5     4     6 1   
     6     4     7 1   
     7     5    13 1   
     8     5    14 1   
     9     5    15 1   
    10     6     9 1   
    11     6    16 1   
    12     7     8 1   
    13     8     9 1   
    14     8    17 1   
    15     8    18 1   
    16     9    10 1   
    17     9    19 1   
    18    10    11 1   
    19    10    12 1   
@<TRIPOS>SUBSTRUCTURE
     1 41K         1 TEMP              0 ****  ****    0 ROOT
