@<TRIPOS>MOLECULE
41K
   19    19     1     0     0
SMALL
abcg2


@<TRIPOS>ATOM
      1 OAA         -3.3210    -0.4470     0.0700 o          1 41K      -0.730000
      2 CAE         -2.1490    -0.7980     0.2830 c          1 41K       0.735000
      3 OAD         -1.7610    -1.7140     1.0340 o          1 41K      -0.730000
      4 CAF         -1.0490     0.0200    -0.4410 c5         1 41K       0.281200
      5 CAB         -1.4660     0.4640    -1.8310 c3         1 41K      -0.040100
      6 N            0.2020    -0.6620    -0.4480 n7         1 41K      -0.830400
      7 SAK         -0.7930     1.5840     0.6120 ss         1 41K      -0.697000
      8 CB           0.9910     1.2960     0.7320 c5         1 41K       0.086600
      9 CA           1.3110     0.2560    -0.3670 c5         1 41K       0.036500
     10 C            2.6480    -0.4380    -0.0380 c          1 41K       0.725000
     11 O            2.5910    -1.5740     0.4690 o          1 41K      -0.743500
     12 OXT          3.6720     0.2340    -0.2670 o          1 41K      -0.743500
     13 H2          -2.3460     1.1020    -1.7980 hc         1 41K       0.016700
     14 H3          -0.6660     1.0200    -2.3210 hc         1 41K       0.016700
     15 H4          -1.7020    -0.4050    -2.4510 hc         1 41K       0.016700
     16 H5           0.2330    -1.3000     0.3400 hn         1 41K       0.474000
     17 H7           1.5380     2.2260     0.5810 h1         1 41K       0.044700
     18 H8           1.2410     0.9070     1.7220 h1         1 41K       0.044700
     19 H9           1.4090     0.7940    -1.3150 h1         1 41K       0.037700
@<TRIPOS>BOND
     1     1     2 1   
     2     2     3 1   
     3     2     4 1   
     4     4     5 1   
     5     4     6 1   
     6     4     7 1   
     7     5    13 1   
     8     5    14 1   
     9     5    15 1   
    10     6     9 1   
    11     6    16 1   
    12     7     8 1   
    13     8     9 1   
    14     8    17 1   
    15     8    18 1   
    16     9    10 1   
    17     9    19 1   
    18    10    11 1   
    19    10    12 1   
@<TRIPOS>SUBSTRUCTURE
     1 41K         1 TEMP              0 ****  ****    0 ROOT
