@<TRIPOS>MOLECULE
41L
   32    34     1     0     0
SMALL
No Charge or Current Charge


@<TRIPOS>ATOM
      1 C1          -3.0710     0.8720    -0.1240 ca         1 41L      -0.080300
      2 C2          -1.7710     1.6680    -0.1820 c3         1 41L      -0.106100
      3 C3          -0.5830     0.7460    -0.4780 c          1 41L       0.600100
      4 N4           0.1840     0.4100     0.6230 ns         1 41L      -0.420200
      5 N5           1.3060    -0.4330     0.4820 na         1 41L      -0.047900
      6 O6          -0.3450     0.3280    -1.6040 o          1 41L      -0.531100
      7 C7          -3.8260     0.6570    -1.2930 ca         1 41L      -0.090500
      8 C8          -5.0200    -0.0820    -1.2410 ca         1 41L      -0.107500
      9 C9          -5.4670    -0.6130    -0.0190 ca         1 41L      -0.100000
     10 C10         -4.7170    -0.4030     1.1510 ca         1 41L      -0.107500
     11 C11         -3.5230     0.3360     1.0990 ca         1 41L      -0.090500
     12 C12          2.5750     0.0010     0.2410 ca         1 41L      -0.073200
     13 C13          3.3510    -1.1120     0.0560 ca         1 41L       0.071400
     14 N14          2.6160    -2.2900     0.1600 nc         1 41L      -0.567100
     15 C15          1.3640    -1.8370     0.4090 cd         1 41L       0.446700
     16 C16          3.0850     1.3060     0.1810 ca         1 41L      -0.108000
     17 C17          4.4610     1.4580    -0.0830 ca         1 41L      -0.092000
     18 C18          5.2780     0.3190    -0.2760 ca         1 41L      -0.134000
     19 C19          4.7240    -0.9790    -0.2070 ca         1 41L      -0.045000
     20 H2          -1.8370     2.4190    -0.9780 hc         1 41L       0.067700
     21 H2A         -1.6170     2.1750     0.7780 hc         1 41L       0.067700
     22 HN4         -0.0650     0.7640     1.5400 hn         1 41L       0.341500
     23 H7          -3.4860     1.0610    -2.2450 ha         1 41L       0.111000
     24 H8          -5.5990    -0.2450    -2.1480 ha         1 41L       0.114500
     25 H9          -6.3910    -1.1850     0.0210 ha         1 41L       0.115000
     26 H10         -5.0620    -0.8140     2.0970 ha         1 41L       0.114500
     27 H11         -2.9500     0.4910     2.0110 ha         1 41L       0.111000
     28 H15          0.4780    -2.4460     0.5400 h5         1 41L       0.068800
     29 H16          2.4440     2.1720     0.3330 ha         1 41L       0.116000
     30 H17          4.8960     2.4540    -0.1390 ha         1 41L       0.112000
     31 H18          6.3390     0.4420    -0.4800 ha         1 41L       0.114000
     32 H19          5.3450    -1.8580    -0.3550 ha         1 41L       0.130000
@<TRIPOS>BOND
     1     1     2 1   
     2     1     7 ar  
     3     1    11 ar  
     4     2     3 1   
     5     2    20 1   
     6     2    21 1   
     7     3     4 1   
     8     3     6 2   
     9     4     5 1   
    10     4    22 1   
    11     5    12 1   
    12     5    15 1   
    13     7     8 ar  
    14     7    23 1   
    15     8     9 ar  
    16     8    24 1   
    17     9    10 ar  
    18     9    25 1   
    19    10    11 ar  
    20    10    26 1   
    21    11    27 1   
    22    12    13 ar  
    23    12    16 ar  
    24    13    14 1   
    25    13    19 ar  
    26    14    15 2   
    27    15    28 1   
    28    16    17 ar  
    29    16    29 1   
    30    17    18 ar  
    31    17    30 1   
    32    18    19 ar  
    33    18    31 1   
    34    19    32 1   
@<TRIPOS>SUBSTRUCTURE
     1 41L         1 TEMP              0 ****  ****    0 ROOT
