@<TRIPOS>MOLECULE
41L
   32    34     1     0     0
SMALL
bcc


@<TRIPOS>ATOM
      1 C1          -3.0820     0.6840     0.1620 ca         1 41L      -0.080300
      2 C2          -1.7950     1.1960     0.7360 c3         1 41L      -0.106100
      3 C3          -0.6330     0.2740     0.4380 c          1 41L       0.667100
      4 N4           0.4200     0.4360     1.2920 ns         1 41L      -0.487200
      5 N5           1.5750    -0.2370     1.0820 na         1 41L      -0.047900
      6 O6          -0.6070    -0.5260    -0.4690 o          1 41L      -0.531100
      7 C7          -3.4860     1.0510    -1.1170 ca         1 41L      -0.108500
      8 C8          -4.6700     0.5620    -1.6540 ca         1 41L      -0.125500
      9 C9          -5.4630    -0.3070    -0.9160 ca         1 41L      -0.118000
     10 C10         -5.0660    -0.6790     0.3620 ca         1 41L      -0.125500
     11 C11         -3.8830    -0.1860     0.8960 ca         1 41L      -0.108500
     12 C12          2.6050     0.1420     0.2530 ca         1 41L      -0.073200
     13 C13          3.5150    -0.9200     0.3280 ca         1 41L       0.071400
     14 N14          3.0320    -1.9070     1.1650 nc         1 41L      -0.567100
     15 C15          1.8860    -1.4680     1.5820 cd         1 41L       0.446700
     16 C16          2.8200     1.2750    -0.5180 ca         1 41L      -0.126000
     17 C17          4.0050     1.3140    -1.2320 ca         1 41L      -0.110000
     18 C18          4.9330     0.2620    -1.1720 ca         1 41L      -0.152000
     19 C19          4.7040    -0.8610    -0.3970 ca         1 41L      -0.063000
     20 H2          -1.5450     2.1730     0.3090 hc         1 41L       0.067700
     21 H2A         -1.8800     1.3500     1.8140 hc         1 41L       0.067700
     22 HN4          0.4220     1.1370     2.0180 hn         1 41L       0.341500
     23 H7          -2.8750     1.7320    -1.6980 ha         1 41L       0.129000
     24 H8          -4.9710     0.8600    -2.6500 ha         1 41L       0.132500
     25 H9          -6.3860    -0.6890    -1.3320 ha         1 41L       0.133000
     26 H10         -5.6790    -1.3540     0.9460 ha         1 41L       0.132500
     27 H11         -3.5840    -0.4780     1.8960 ha         1 41L       0.129000
     28 H15          1.2130    -1.9770     2.2570 h5         1 41L       0.068800
     29 H16          2.1030     2.0850    -0.5610 ha         1 41L       0.134000
     30 H17          4.2220     2.1740    -1.8510 ha         1 41L       0.130000
     31 H18          5.8470     0.3350    -1.7470 ha         1 41L       0.132000
     32 H19          5.4210    -1.6700    -0.3530 ha         1 41L       0.148000
@<TRIPOS>BOND
     1     1     2 1   
     2     1     7 ar  
     3     1    11 ar  
     4     2     3 1   
     5     2    20 1   
     6     2    21 1   
     7     3     4 1   
     8     3     6 2   
     9     4     5 1   
    10     4    22 1   
    11     5    12 1   
    12     5    15 1   
    13     7     8 ar  
    14     7    23 1   
    15     8     9 ar  
    16     8    24 1   
    17     9    10 ar  
    18     9    25 1   
    19    10    11 ar  
    20    10    26 1   
    21    11    27 1   
    22    12    13 ar  
    23    12    16 ar  
    24    13    14 1   
    25    13    19 ar  
    26    14    15 2   
    27    15    28 1   
    28    16    17 ar  
    29    16    29 1   
    30    17    18 ar  
    31    17    30 1   
    32    18    19 ar  
    33    18    31 1   
    34    19    32 1   
@<TRIPOS>SUBSTRUCTURE
     1 41L         1 TEMP              0 ****  ****    0 ROOT
