@<TRIPOS>MOLECULE
41M
   54    55     1     0     0
SMALL
No Charge or Current Charge


@<TRIPOS>ATOM
      1 N1          -6.3950     1.3460     0.3310 ns         1 41M      -0.511900
      2 C2          -7.4770     1.4480    -0.4730 c          1 41M       0.614000
      3 N3          -8.2160     0.3200    -0.3780 ns         1 41M      -0.524900
      4 C4          -6.3270     0.0620     1.0410 c5         1 41M       0.097700
      5 C5          -7.6110    -0.6900     0.4950 c5         1 41M       0.103700
      6 C6          -7.1480    -1.8300    -0.4740 c5         1 41M       0.028600
      7 S7          -5.5170    -1.3050    -1.1760 ss         1 41M      -0.405000
      8 C8          -5.0580    -0.7030     0.5130 c5         1 41M       0.071300
      9 C9          -3.7300     0.1010     0.4940 c3         1 41M      -0.058400
     10 C10         -2.4780    -0.7450     0.1630 c3         1 41M      -0.079400
     11 C11         -1.1690     0.0740     0.1920 c3         1 41M      -0.065400
     12 C12          0.0810    -0.7740    -0.1400 c3         1 41M      -0.156400
     13 C13          1.3610     0.0680    -0.0970 c          1 41M       0.597100
     14 N14          2.1740    -0.1630     0.9900 ns         1 41M      -0.511900
     15 C15          3.4650     0.4890     1.2250 c3         1 41M       0.106000
     16 C16          4.5970    -0.1450     0.3910 c3         1 41M      -0.096400
     17 C17          5.9710     0.5130     0.6450 c3         1 41M      -0.068400
     18 C18          7.1100    -0.1220    -0.1920 c3         1 41M      -0.067400
     19 C19          8.5200     0.4750     0.0840 c3         1 41M       0.087500
     20 C20          9.6540    -0.3940    -0.5830 c          1 41M       0.560100
     21 N21          9.8100    -1.6560    -0.1190 nt         1 41M      -0.605000
     22 O22         -7.7520     2.4110    -1.1620 o          1 41M      -0.576000
     23 O23          1.6520     0.8670    -0.9760 o          1 41M      -0.605100
     24 N24          8.5520     1.9380    -0.2630 n8         1 41M      -0.983200
     25 O25         10.3860     0.0180    -1.4710 o          1 41M      -0.610100
     26 H1          -5.7380     2.1120     0.3850 hn         1 41M       0.338500
     27 H2          -9.0650     0.2310    -0.9220 hn         1 41M       0.342500
     28 H3          -6.3310     0.1830     2.1320 h1         1 41M       0.061700
     29 H4          -8.2890    -1.0400     1.2860 h1         1 41M       0.069700
     30 H5          -7.0010    -2.7650     0.0830 h1         1 41M       0.077200
     31 H6          -7.8740    -2.0310    -1.2730 h1         1 41M       0.077200
     32 H7          -4.8980    -1.5870     1.1470 h1         1 41M       0.067700
     33 H8          -3.7970     0.9210    -0.2310 hc         1 41M       0.055200
     34 H9          -3.5820     0.5660     1.4770 hc         1 41M       0.055200
     35 H10         -2.4030    -1.5710     0.8820 hc         1 41M       0.044200
     36 H11         -2.5940    -1.1960    -0.8300 hc         1 41M       0.044200
     37 H12         -1.2450     0.9010    -0.5260 hc         1 41M       0.055200
     38 H13         -1.0450     0.5240     1.1850 hc         1 41M       0.055200
     39 H14          0.1470    -1.5940     0.5860 hc         1 41M       0.054700
     40 H15         -0.0350    -1.1840    -1.1500 hc         1 41M       0.054700
     41 H16          1.8500    -0.8480     1.6630 hn         1 41M       0.309500
     42 H17          3.3770     1.5560     0.9810 h1         1 41M       0.052700
     43 H18          3.7060     0.4060     2.2930 h1         1 41M       0.052700
     44 H19          4.6580    -1.2150     0.6270 hc         1 41M       0.040200
     45 H20          4.3510    -0.0650    -0.6750 hc         1 41M       0.040200
     46 H21          5.8990     1.5840     0.4170 hc         1 41M       0.054700
     47 H22          6.2190     0.4300     1.7110 hc         1 41M       0.054700
     48 H23          7.1270    -1.1970     0.0220 hc         1 41M       0.043700
     49 H24          6.8770    -0.0230    -1.2600 hc         1 41M       0.043700
     50 H25          8.6960     0.3960     1.1670 h1         1 41M       0.064700
     51 H26          9.2170    -2.0050     0.6200 hn         1 41M       0.313500
     52 H27         10.5290    -2.2420    -0.5180 hn         1 41M       0.313500
     53 H28          9.4850     2.3100    -0.0440 hn         1 41M       0.409500
     54 H29          8.5100     2.0310    -1.2850 hn         1 41M       0.409500
@<TRIPOS>BOND
     1     1     2 1   
     2     1     4 1   
     3     1    26 1   
     4     2     3 1   
     5     2    22 2   
     6     3     5 1   
     7     3    27 1   
     8     4     5 1   
     9     4     8 1   
    10     4    28 1   
    11     5     6 1   
    12     5    29 1   
    13     6     7 1   
    14     6    30 1   
    15     6    31 1   
    16     7     8 1   
    17     8     9 1   
    18     8    32 1   
    19     9    10 1   
    20     9    33 1   
    21     9    34 1   
    22    10    11 1   
    23    10    35 1   
    24    10    36 1   
    25    11    12 1   
    26    11    37 1   
    27    11    38 1   
    28    12    13 1   
    29    12    39 1   
    30    12    40 1   
    31    13    14 1   
    32    13    23 2   
    33    14    15 1   
    34    14    41 1   
    35    15    16 1   
    36    15    42 1   
    37    15    43 1   
    38    16    17 1   
    39    16    44 1   
    40    16    45 1   
    41    17    18 1   
    42    17    46 1   
    43    17    47 1   
    44    18    19 1   
    45    18    48 1   
    46    18    49 1   
    47    19    20 1   
    48    19    24 1   
    49    19    50 1   
    50    20    21 1   
    51    20    25 2   
    52    21    51 1   
    53    21    52 1   
    54    24    53 1   
    55    24    54 1   
@<TRIPOS>SUBSTRUCTURE
     1 41M         1 TEMP              0 ****  ****    0 ROOT
