@<TRIPOS>MOLECULE
41M
   54    55     1     0     0
SMALL
bcc


@<TRIPOS>ATOM
      1 N1          -6.5770     1.0410     0.8840 ns         1 41M      -0.578900
      2 C2          -7.7990     1.2260     0.3140 c          1 41M       0.823500
      3 N3          -8.3460    -0.0020     0.1320 ns         1 41M      -0.591900
      4 C4          -6.2790    -0.3400     1.1670 c5         1 41M       0.097700
      5 C5          -7.4910    -1.0880     0.5350 c5         1 41M       0.103700
      6 C6          -6.9900    -1.9440    -0.6330 c5         1 41M      -0.019300
      7 S7          -5.4830    -1.1470    -1.2400 ss         1 41M      -0.309200
      8 C8          -4.9930    -0.8290     0.4880 c5         1 41M       0.023400
      9 C9          -3.8160     0.1230     0.5990 c3         1 41M      -0.058400
     10 C10         -2.5370    -0.4270    -0.0210 c3         1 41M      -0.079400
     11 C11         -1.3430     0.4960     0.1850 c3         1 41M      -0.065400
     12 C12         -0.0830    -0.0570    -0.4680 c3         1 41M      -0.156400
     13 C13          1.1260     0.8360    -0.2880 c          1 41M       0.664100
     14 N14          2.2950     0.1960    -0.1370 ns         1 41M      -0.578900
     15 C15          3.5640     0.8810    -0.0090 c3         1 41M       0.106000
     16 C16          4.7150    -0.1130    -0.0360 c3         1 41M      -0.096400
     17 C17          6.0640     0.5790     0.1110 c3         1 41M      -0.068400
     18 C18          7.2210    -0.4100     0.0600 c3         1 41M      -0.067400
     19 C19          8.5920     0.2470     0.2640 c3         1 41M       0.087500
     20 C20          9.6570    -0.8550     0.2780 c          1 41M       0.627100
     21 N21          9.8180    -1.4740     1.4560 nt         1 41M      -0.672000
     22 O22         -8.3100     2.2990     0.0300 o          1 41M      -0.651500
     23 O23          1.0460     2.0590    -0.3070 o          1 41M      -0.605100
     24 N24          8.8250     1.2610    -0.7390 n8         1 41M      -0.872800
     25 O25         10.2880    -1.1550    -0.7260 o          1 41M      -0.610100
     26 H1          -6.1260     1.7940     1.3760 hn         1 41M       0.338500
     27 H2          -9.1740    -0.1370    -0.4230 hn         1 41M       0.342500
     28 H3          -6.2080    -0.5160     2.2440 h1         1 41M       0.061700
     29 H4          -7.9950    -1.7300     1.2620 h1         1 41M       0.069700
     30 H5          -6.7560    -2.9510    -0.2850 h1         1 41M       0.077200
     31 H6          -7.7270    -2.0240    -1.4330 h1         1 41M       0.077200
     32 H7          -4.7230    -1.7900     0.9380 h1         1 41M       0.067700
     33 H8          -4.0700     1.0800     0.1350 hc         1 41M       0.055200
     34 H9          -3.6430     0.3240     1.6620 hc         1 41M       0.055200
     35 H10         -2.3180    -1.4110     0.4080 hc         1 41M       0.044200
     36 H11         -2.6870    -0.5880    -1.0930 hc         1 41M       0.044200
     37 H12         -1.5670     1.4840    -0.2240 hc         1 41M       0.055200
     38 H13         -1.1710     0.6340     1.2570 hc         1 41M       0.055200
     39 H14          0.1240    -1.0620    -0.0900 hc         1 41M       0.054700
     40 H15         -0.2480    -0.1670    -1.5450 hc         1 41M       0.054700
     41 H16          2.2940    -0.8100    -0.0970 hn         1 41M       0.309500
     42 H17          3.6790     1.5980    -0.8250 h1         1 41M       0.052700
     43 H18          3.5920     1.4550     0.9220 h1         1 41M       0.052700
     44 H19          4.5870    -0.8440     0.7690 hc         1 41M       0.040200
     45 H20          4.6890    -0.6730    -0.9770 hc         1 41M       0.040200
     46 H21          6.1850     1.3250    -0.6770 hc         1 41M       0.054700
     47 H22          6.0940     1.1240     1.0600 hc         1 41M       0.054700
     48 H23          7.0750    -1.1760     0.8270 hc         1 41M       0.043700
     49 H24          7.2170    -0.9340    -0.9030 hc         1 41M       0.043700
     50 H25          8.5880     0.7370     1.2450 h1         1 41M       0.064700
     51 H26          9.2810    -1.2160     2.2660 hn         1 41M       0.313500
     52 H27         10.4360    -2.2640     1.5450 hn         1 41M       0.313500
     53 H28          9.7210     1.7060    -0.5800 hn         1 41M       0.354300
     54 H29          8.8930     0.8230    -1.6500 hn         1 41M       0.354300
@<TRIPOS>BOND
     1     1     2 1   
     2     1     4 1   
     3     1    26 1   
     4     2     3 1   
     5     2    22 2   
     6     3     5 1   
     7     3    27 1   
     8     4     5 1   
     9     4     8 1   
    10     4    28 1   
    11     5     6 1   
    12     5    29 1   
    13     6     7 1   
    14     6    30 1   
    15     6    31 1   
    16     7     8 1   
    17     8     9 1   
    18     8    32 1   
    19     9    10 1   
    20     9    33 1   
    21     9    34 1   
    22    10    11 1   
    23    10    35 1   
    24    10    36 1   
    25    11    12 1   
    26    11    37 1   
    27    11    38 1   
    28    12    13 1   
    29    12    39 1   
    30    12    40 1   
    31    13    14 1   
    32    13    23 2   
    33    14    15 1   
    34    14    41 1   
    35    15    16 1   
    36    15    42 1   
    37    15    43 1   
    38    16    17 1   
    39    16    44 1   
    40    16    45 1   
    41    17    18 1   
    42    17    46 1   
    43    17    47 1   
    44    18    19 1   
    45    18    48 1   
    46    18    49 1   
    47    19    20 1   
    48    19    24 1   
    49    19    50 1   
    50    20    21 1   
    51    20    25 2   
    52    21    51 1   
    53    21    52 1   
    54    24    53 1   
    55    24    54 1   
@<TRIPOS>SUBSTRUCTURE
     1 41M         1 TEMP              0 ****  ****    0 ROOT
