@<TRIPOS>MOLECULE
41N
   46    49     1     0     0
SMALL
abcg2


@<TRIPOS>ATOM
      1 C3          -3.8140    -0.5630    -1.5750 ca         1 41N      -0.063000
      2 C4          -3.2940    -0.7460    -0.3010 ca         1 41N      -0.151600
      3 O8          -5.6680     1.4380     1.4500 os         1 41N      -0.342100
      4 C11         -2.1780    -1.7240    -0.1250 c          1 41N       0.620700
      5 C14         -0.0560    -2.2710     0.9350 c6         1 41N       0.085500
      6 C15          1.2010    -1.9650     0.1360 c6         1 41N       0.182800
      7 C2          -4.8930     0.2960    -1.8090 ca         1 41N      -0.107000
      8 C5          -3.8630    -0.0970     0.8080 ca         1 41N      -0.072000
      9 C6          -4.9300     0.7270     0.5640 ca         1 41N       0.042100
     10 C7          -5.4310     0.9260    -0.7150 ca         1 41N       0.073100
     11 C9          -6.5360     2.2570     0.6780 c5         1 41N       0.373600
     12 O10         -6.4820     1.7720    -0.6590 os         1 41N      -0.340100
     13 O12         -2.2620    -2.8380    -0.6240 o          1 41N      -0.587100
     14 N13         -1.1230    -1.3390     0.6300 n          1 41N      -0.404800
     15 N16          1.6040    -0.5860     0.3390 nh         1 41N      -0.805400
     16 C17          0.5330     0.3620     0.0740 c6         1 41N       0.182800
     17 C18         -0.7190     0.0340     0.8700 c6         1 41N       0.085500
     18 C20          2.9120    -0.2170     0.1150 ca         1 41N       0.347000
     19 C21          3.3540     1.0920     0.3940 ca         1 41N      -0.195000
     20 C22          4.6690     1.4540     0.2130 ca         1 41N      -0.023000
     21 C23          5.6240     0.5460    -0.2560 ca         1 41N      -0.224600
     22 C24          5.1890    -0.7490    -0.5380 ca         1 41N      -0.023000
     23 C25          3.8710    -1.1260    -0.3660 ca         1 41N      -0.195000
     24 C26          7.0260     0.9730    -0.4310 c          1 41N       0.590700
     25 C27          8.0230    -0.0410    -0.9290 c3         1 41N      -0.195100
     26 O28          7.3700     2.1140    -0.1790 o          1 41N      -0.536100
     27 H1          -3.3700    -1.0830    -2.4140 ha         1 41N       0.135000
     28 H3           0.1690    -2.1930     2.0030 h1         1 41N       0.068700
     29 H4           1.9820    -2.6350     0.4910 h1         1 41N       0.051700
     30 H5           1.0310    -2.1830    -0.9280 h1         1 41N       0.051700
     31 H6          -5.2850     0.4460    -2.8050 ha         1 41N       0.140000
     32 H7          -3.4870    -0.2490     1.8120 ha         1 41N       0.141000
     33 H8          -7.5550     2.1770     1.0580 h2         1 41N       0.067700
     34 H9          -6.1940     3.2960     0.7090 h2         1 41N       0.067700
     35 H10          0.8370     1.3710     0.3400 h1         1 41N       0.051700
     36 H11          0.2880     0.3680    -0.9970 h1         1 41N       0.051700
     37 H12         -1.5010     0.7300     0.5800 h1         1 41N       0.068700
     38 H13         -0.5280     0.1700     1.9380 h1         1 41N       0.068700
     39 H14          2.6710     1.8330     0.7840 ha         1 41N       0.115500
     40 H15          4.9650     2.4670     0.4560 ha         1 41N       0.121000
     41 H16          5.8800    -1.4910    -0.9180 ha         1 41N       0.121000
     42 H17          3.5960    -2.1360    -0.6330 ha         1 41N       0.115500
     43 H18          8.0790    -0.8990    -0.2580 hc         1 41N       0.059033
     44 H19          7.7350    -0.4220    -1.9100 hc         1 41N       0.059033
     45 H20          9.0110     0.4070    -1.0070 hc         1 41N       0.059033
     46 H2          -0.3790    -3.2890     0.7340 h1         1 41N       0.068700
@<TRIPOS>BOND
     1     1     2 ar  
     2     1     7 ar  
     3     1    27 1   
     4     2     4 1   
     5     2     8 ar  
     6     3     9 1   
     7     3    11 1   
     8     4    13 2   
     9     4    14 1   
    10     5     6 1   
    11     5    14 1   
    12     5    28 1   
    13     5    46 1   
    14     6    15 1   
    15     6    29 1   
    16     6    30 1   
    17     7    10 ar  
    18     7    31 1   
    19     8     9 ar  
    20     8    32 1   
    21     9    10 ar  
    22    10    12 1   
    23    11    12 1   
    24    11    33 1   
    25    11    34 1   
    26    14    17 1   
    27    15    16 1   
    28    15    18 1   
    29    16    17 1   
    30    16    35 1   
    31    16    36 1   
    32    17    37 1   
    33    17    38 1   
    34    18    19 ar  
    35    18    23 ar  
    36    19    20 ar  
    37    19    39 1   
    38    20    21 ar  
    39    20    40 1   
    40    21    22 ar  
    41    21    24 1   
    42    22    23 ar  
    43    22    41 1   
    44    23    42 1   
    45    24    25 1   
    46    24    26 2   
    47    25    43 1   
    48    25    44 1   
    49    25    45 1   
@<TRIPOS>SUBSTRUCTURE
     1 41N         1 TEMP              0 ****  ****    0 ROOT
