@<TRIPOS>MOLECULE
41N
   46    49     1     0     0
SMALL
No Charge or Current Charge


@<TRIPOS>ATOM
      1 C3          -4.1750    -0.8100    -1.5860 ca         1 41N      -0.063000
      2 C4          -3.4160    -0.7600    -0.3840 ca         1 41N      -0.151600
      3 O8          -5.5520     1.7050     1.3860 os         1 41N      -0.342100
      4 C11         -2.2020    -1.6530    -0.2360 c          1 41N       0.620700
      5 C14         -0.0960    -2.2010     1.0540 c6         1 41N       0.085500
      6 C15          1.2310    -1.9890     0.2750 c6         1 41N       0.182800
      7 C2          -5.3270    -0.0110    -1.7480 ca         1 41N      -0.107000
      8 C5          -3.8550     0.0800     0.6740 ca         1 41N      -0.072000
      9 C6          -4.9990     0.8620     0.4760 ca         1 41N       0.042100
     10 C7          -5.7060     0.8220    -0.6910 ca         1 41N       0.073100
     11 C9          -6.6660     2.3060     0.6350 c5         1 41N       0.373600
     12 O10         -6.7920     1.6360    -0.6690 os         1 41N      -0.340100
     13 O12         -2.1640    -2.7440    -0.7920 o          1 41N      -0.587100
     14 N13         -1.1640    -1.2500     0.6340 n          1 41N      -0.404800
     15 N16          1.6880    -0.5680     0.3460 nh         1 41N      -0.805400
     16 C17          0.6280     0.4100    -0.0440 c6         1 41N       0.182800
     17 C18         -0.7060     0.1690     0.7190 c6         1 41N       0.085500
     18 C20          3.0510    -0.2290     0.1840 ca         1 41N       0.347000
     19 C21          3.5590     0.9280     0.7940 ca         1 41N      -0.195000
     20 C22          4.9090     1.2860     0.6490 ca         1 41N      -0.023000
     21 C23          5.7860     0.4870    -0.1170 ca         1 41N      -0.224600
     22 C24          5.2730    -0.6790    -0.7310 ca         1 41N      -0.023000
     23 C25          3.9210    -1.0290    -0.5780 ca         1 41N      -0.195000
     24 C26          7.2400     0.8930    -0.2600 c          1 41N       0.590700
     25 C27          8.1920     0.0270    -1.0880 c3         1 41N      -0.195100
     26 O28          7.6640     1.9080     0.2790 o          1 41N      -0.536100
     27 H1          -3.8660    -1.4660    -2.3980 ha         1 41N       0.135000
     28 H3           0.1000    -2.0560     2.1260 h1         1 41N       0.068700
     29 H4           1.9920    -2.6590     0.7000 h1         1 41N       0.051700
     30 H5           1.0780    -2.2830    -0.7740 h1         1 41N       0.051700
     31 H6          -5.9080    -0.0440    -2.6670 ha         1 41N       0.140000
     32 H7          -3.3370     0.1130     1.6300 ha         1 41N       0.141000
     33 H8          -7.5980     2.1920     1.2010 h2         1 41N       0.067700
     34 H9          -6.4540     3.3690     0.4710 h2         1 41N       0.067700
     35 H10          0.9550     1.4420     0.1470 h1         1 41N       0.051700
     36 H11          0.4350     0.3300    -1.1240 h1         1 41N       0.051700
     37 H12         -1.4560     0.8570     0.3080 h1         1 41N       0.068700
     38 H13         -0.5650     0.4340     1.7770 h1         1 41N       0.068700
     39 H14          2.9050     1.5500     1.3980 ha         1 41N       0.115500
     40 H15          5.2690     2.1890     1.1390 ha         1 41N       0.121000
     41 H16          5.9070    -1.3260    -1.3320 ha         1 41N       0.121000
     42 H17          3.5520    -1.9230    -1.0700 ha         1 41N       0.115500
     43 H18          8.1740    -0.9970    -0.7000 hc         1 41N       0.059033
     44 H19          7.7840    -0.0890    -2.0980 hc         1 41N       0.059033
     45 H20          9.2120     0.4270    -1.1120 hc         1 41N       0.059033
     46 H2          -0.4290    -3.2410     0.9320 h1         1 41N       0.068700
@<TRIPOS>BOND
     1     1     2 ar  
     2     1     7 ar  
     3     1    27 1   
     4     2     4 1   
     5     2     8 ar  
     6     3     9 1   
     7     3    11 1   
     8     4    13 2   
     9     4    14 1   
    10     5     6 1   
    11     5    14 1   
    12     5    28 1   
    13     5    46 1   
    14     6    15 1   
    15     6    29 1   
    16     6    30 1   
    17     7    10 ar  
    18     7    31 1   
    19     8     9 ar  
    20     8    32 1   
    21     9    10 ar  
    22    10    12 1   
    23    11    12 1   
    24    11    33 1   
    25    11    34 1   
    26    14    17 1   
    27    15    16 1   
    28    15    18 1   
    29    16    17 1   
    30    16    35 1   
    31    16    36 1   
    32    17    37 1   
    33    17    38 1   
    34    18    19 ar  
    35    18    23 ar  
    36    19    20 ar  
    37    19    39 1   
    38    20    21 ar  
    39    20    40 1   
    40    21    22 ar  
    41    21    24 1   
    42    22    23 ar  
    43    22    41 1   
    44    23    42 1   
    45    24    25 1   
    46    24    26 2   
    47    25    43 1   
    48    25    44 1   
    49    25    45 1   
@<TRIPOS>SUBSTRUCTURE
     1 41N         1 TEMP              0 ****  ****    0 ROOT
