@<TRIPOS>MOLECULE
41O
   42    45     1     0     0
SMALL
bcc


@<TRIPOS>ATOM
      1 C7           4.2240    -0.2090    -0.6420 ca         1 41O      -0.079000
      2 C3           5.5820    -1.4560     0.9230 ca         1 41O      -0.105000
      3 C4           4.9480    -0.8090     1.9740 ca         1 41O      -0.127000
      4 C5           3.9450     0.1170     1.7290 ca         1 41O      -0.104000
      5 C30         -3.3020    -0.6120     0.6370 ca         1 41O      -0.160000
      6 C29         -4.6090    -0.8990     0.3550 ca         1 41O      -0.025800
      7 C31         -5.4850    -1.9670     0.8830 cc         1 41O      -0.071200
      8 C32         -6.7010    -1.8690     0.3340 cd         1 41O      -0.238200
      9 C33         -6.7140    -0.7080    -0.6100 c          1 41O       0.582900
     10 O34         -7.6510    -0.3290    -1.2780 o          1 41O      -0.493100
     11 C28         -5.3540    -0.1340    -0.5470 ca         1 41O      -0.229600
     12 C27         -4.7760     0.9420    -1.1780 ca         1 41O      -0.014000
     13 C26         -3.4420     1.2500    -0.9120 ca         1 41O      -0.217000
     14 C25         -2.6830     0.4940    -0.0060 ca         1 41O       0.196600
     15 N22         -1.3770     0.8180     0.3000 nh         1 41O      -0.664000
     16 C23         -0.7990     2.0290    -0.2510 c6         1 41O       0.181800
     17 C24          0.3990     2.4680     0.5760 c6         1 41O       0.089000
     18 C21         -0.3990    -0.2490     0.4570 c6         1 41O       0.181800
     19 C20          0.7960     0.2030     1.2810 c6         1 41O       0.089000
     20 N19          1.3740     1.4040     0.7090 n          1 41O      -0.473800
     21 O11          2.9080     2.4160    -0.6130 o          1 41O      -0.584100
     22 C6           3.5790     0.4140     0.4190 ca         1 41O      -0.138600
     23 C8           5.2060    -1.1490    -0.3760 ca         1 41O       0.020400
     24 CL9          5.9900    -1.9490    -1.6980 cl         1 41O      -0.102400
     25 H1           3.9560     0.0260    -1.6640 ha         1 41O       0.161000
     26 H2           6.3590    -2.1840     1.1140 ha         1 41O       0.151000
     27 H3           5.2410    -1.0310     2.9910 ha         1 41O       0.140000
     28 H4           3.4580     0.6130     2.5590 ha         1 41O       0.142000
     29 H5          -2.7660    -1.2060     1.3650 ha         1 41O       0.138000
     30 H6          -5.1620    -2.7070     1.6020 ha         1 41O       0.147000
     31 H7          -7.5540    -2.5040     0.5170 ha         1 41O       0.163000
     32 H8          -5.3310     1.5430    -1.8870 ha         1 41O       0.146000
     33 H9          -3.0010     2.0810    -1.4410 ha         1 41O       0.137000
     34 H10         -0.5010     1.8950    -1.3000 h1         1 41O       0.051950
     35 H11         -1.5300     2.8350    -0.2130 h1         1 41O       0.051950
     36 H12          0.8560     3.3410     0.1190 h1         1 41O       0.067450
     37 H13          0.0610     2.7480     1.5780 h1         1 41O       0.067450
     38 H14         -0.8380    -1.1070     0.9580 h1         1 41O       0.051950
     39 H15         -0.0500    -0.5880    -0.5280 h1         1 41O       0.051950
     40 H16          0.4870     0.4030     2.3100 h1         1 41O       0.067450
     41 H17          1.5190    -0.6080     1.3020 h1         1 41O       0.067450
     42 C10          2.5820     1.4900     0.1160 c          1 41O       0.684700
@<TRIPOS>BOND
     1     1    22 ar  
     2     1    23 ar  
     3     1    25 1   
     4     2     3 ar  
     5     2    23 ar  
     6     2    26 1   
     7     3     4 ar  
     8     3    27 1   
     9     4    22 ar  
    10     4    28 1   
    11     5     6 ar  
    12     5    14 ar  
    13     5    29 1   
    14     6     7 1   
    15     6    11 ar  
    16     7     8 2   
    17     7    30 1   
    18     8     9 1   
    19     8    31 1   
    20     9    10 2   
    21     9    11 1   
    22    11    12 ar  
    23    12    13 ar  
    24    12    32 1   
    25    13    14 ar  
    26    13    33 1   
    27    14    15 1   
    28    15    16 1   
    29    15    18 1   
    30    16    17 1   
    31    16    34 1   
    32    16    35 1   
    33    17    20 1   
    34    17    36 1   
    35    17    37 1   
    36    18    19 1   
    37    18    38 1   
    38    18    39 1   
    39    19    20 1   
    40    19    40 1   
    41    19    41 1   
    42    20    42 1   
    43    21    42 2   
    44    22    42 1   
    45    23    24 1   
@<TRIPOS>SUBSTRUCTURE
     1 41O         1 TEMP              0 ****  ****    0 ROOT
