@<TRIPOS>MOLECULE
41O
   42    45     1     0     0
SMALL
No Charge or Current Charge


@<TRIPOS>ATOM
      1 C7           4.6320     0.0610    -0.6580 ca         1 41O      -0.061000
      2 C3           5.8730    -1.3330     0.9050 ca         1 41O      -0.087000
      3 C4           4.9820    -0.9720     1.9300 ca         1 41O      -0.109000
      4 C5           3.9130    -0.0990     1.6610 ca         1 41O      -0.086000
      5 C30         -3.4930    -0.4680     0.7950 ca         1 41O      -0.142000
      6 C29         -4.8330    -0.7550     0.5070 ca         1 41O      -0.025800
      7 C31         -5.7490    -1.6350     1.2220 cc         1 41O      -0.121200
      8 C32         -6.9510    -1.5690     0.5340 cd         1 41O      -0.288200
      9 C33         -6.8590    -0.6660    -0.6230 c          1 41O       0.582900
     10 O34         -7.7280    -0.3820    -1.4350 o          1 41O      -0.493100
     11 C28         -5.4640    -0.1740    -0.5810 ca         1 41O      -0.229600
     12 C27         -4.8020     0.7180    -1.4320 ca         1 41O       0.004000
     13 C26         -3.4520     1.0140    -1.1510 ca         1 41O      -0.199000
     14 C25         -2.7900     0.4270    -0.0420 ca         1 41O       0.335000
     15 N22         -1.4350     0.7260     0.2390 nh         1 41O      -0.802400
     16 C23         -0.8310     2.0330    -0.1590 c6         1 41O       0.181800
     17 C24          0.3820     2.3990     0.7380 c6         1 41O       0.089000
     18 C21         -0.4350    -0.3800     0.3350 c6         1 41O       0.181800
     19 C20          0.7910     0.0080     1.2100 c6         1 41O       0.089000
     20 N19          1.3980     1.3090     0.7970 n          1 41O      -0.406800
     21 O11          2.7420     2.2490    -0.8070 o          1 41O      -0.584100
     22 C6           3.7130     0.4130     0.3560 ca         1 41O      -0.138600
     23 C8           5.6980    -0.8110    -0.3860 ca         1 41O       0.112000
     24 Cl9          6.8220    -1.2500    -1.6670 cl         1 41O      -0.194000
     25 H1           4.5150     0.4570    -1.6640 ha         1 41O       0.143000
     26 H2           6.7010    -2.0060     1.1130 ha         1 41O       0.133000
     27 H3           5.1250    -1.3620     2.9360 ha         1 41O       0.122000
     28 H4           3.2530     0.1910     2.4760 ha         1 41O       0.124000
     29 H5          -3.0080    -0.9170     1.6550 ha         1 41O       0.120000
     30 H6          -5.5440    -2.2270     2.1130 ha         1 41O       0.197000
     31 H7          -7.8760    -2.0850     0.7600 ha         1 41O       0.213000
     32 H8          -5.3100     1.1650    -2.2850 ha         1 41O       0.128000
     33 H9          -2.9200     1.6950    -1.8080 ha         1 41O       0.119000
     34 H10         -0.4990     1.9910    -1.2070 h1         1 41O       0.051950
     35 H11         -1.5750     2.8400    -0.0800 h1         1 41O       0.051950
     36 H12          0.8340     3.3340     0.3800 h1         1 41O       0.067450
     37 H13          0.0190     2.5930     1.7570 h1         1 41O       0.067450
     38 H14         -0.8900    -1.2870     0.7580 h1         1 41O       0.051950
     39 H15         -0.0790    -0.6400    -0.6730 h1         1 41O       0.051950
     40 H16          0.4720     0.0830     2.2590 h1         1 41O       0.067450
     41 H17          1.5190    -0.8100     1.1480 h1         1 41O       0.067450
     42 C10          2.5870     1.3750     0.0370 c          1 41O       0.617700
@<TRIPOS>BOND
     1     1    22 ar  
     2     1    23 ar  
     3     1    25 1   
     4     2     3 ar  
     5     2    23 ar  
     6     2    26 1   
     7     3     4 ar  
     8     3    27 1   
     9     4    22 ar  
    10     4    28 1   
    11     5     6 ar  
    12     5    14 ar  
    13     5    29 1   
    14     6     7 1   
    15     6    11 ar  
    16     7     8 2   
    17     7    30 1   
    18     8     9 1   
    19     8    31 1   
    20     9    10 2   
    21     9    11 1   
    22    11    12 ar  
    23    12    13 ar  
    24    12    32 1   
    25    13    14 ar  
    26    13    33 1   
    27    14    15 1   
    28    15    16 1   
    29    15    18 1   
    30    16    17 1   
    31    16    34 1   
    32    16    35 1   
    33    17    20 1   
    34    17    36 1   
    35    17    37 1   
    36    18    19 1   
    37    18    38 1   
    38    18    39 1   
    39    19    20 1   
    40    19    40 1   
    41    19    41 1   
    42    20    42 1   
    43    21    42 2   
    44    22    42 1   
    45    23    24 1   
@<TRIPOS>SUBSTRUCTURE
     1 41O         1 TEMP              0 ****  ****    0 ROOT
