@<TRIPOS>MOLECULE
41P
   70    73     1     0     0
SMALL
abcg2


@<TRIPOS>ATOM
      1 C11          3.0320    -3.0280   -21.7100 c3         1 41P       0.137800
      2 C12          2.1470    -3.7730   -20.7030 c          1 41P       0.601100
      3 C01          5.4860    -1.0570   -28.9680 c3         1 41P       0.149900
      4 C03          4.1170    -0.6880   -27.0260 ca         1 41P       0.188100
      5 C04          4.2020    -1.9980   -26.5460 ca         1 41P      -0.190750
      6 C05          3.3580    -2.4120   -25.5270 ca         1 41P       0.022500
      7 C06          3.1730     0.1930   -26.4890 ca         1 41P      -0.190750
      8 C07          2.3410    -0.2170   -25.4640 ca         1 41P       0.022500
      9 C08          2.4320    -1.5240   -24.9870 ca         1 41P      -0.353500
     10 S09          1.4390    -2.0230   -23.6180 sy         1 41P       1.206600
     11 N10          2.3810    -1.8490   -22.2680 nh         1 41P      -0.773300
     12 N13          2.7080    -4.8960   -20.2230 nt         1 41P      -0.608000
     13 O14          1.0420    -3.3730   -20.3620 o          1 41P      -0.587100
     14 C15          2.9420    -0.5550   -22.0010 ca         1 41P       0.272000
     15 C16          4.1850    -0.2490   -22.4980 ca         1 41P      -0.118000
     16 C17          4.7610     1.0090   -22.2600 ca         1 41P      -0.118000
     17 C18          4.0750     1.9570   -21.5430 ca         1 41P       0.272000
     18 N19          4.6610     3.2460   -21.3000 nh         1 41P      -0.773300
     19 C20          5.8810     3.2860   -20.4700 c3         1 41P       0.137800
     20 C21          5.5160     2.8970   -19.0380 c          1 41P       0.601100
     21 N22          5.3600     3.9280   -18.1890 nt         1 41P      -0.608000
     22 O23          5.3710     1.7240   -18.7100 o          1 41P      -0.587100
     23 S24          4.5000     4.3920   -22.4960 sy         1 41P       1.206600
     24 C25          5.5230     3.8600   -23.8220 ca         1 41P      -0.353500
     25 C26          6.8960     4.0770   -23.7600 ca         1 41P       0.022500
     26 C27          7.7290     3.5350   -24.7270 ca         1 41P      -0.190750
     27 C28          7.1800     2.7760   -25.7640 ca         1 41P       0.188100
     28 O29          7.9060     2.2140   -26.7520 os         1 41P      -0.349100
     29 C30          9.3250     2.1450   -26.5880 c3         1 41P       0.149900
     30 C31          5.7960     2.5730   -25.8310 ca         1 41P      -0.190750
     31 C32          4.9710     3.1080   -24.8630 ca         1 41P       0.022500
     32 O33          5.0250     5.6190   -21.9500 o          1 41P      -0.535500
     33 O34          3.1270     4.3320   -22.9330 o          1 41P      -0.535500
     34 C35          2.7910     1.6790   -21.0030 ca         1 41P      -0.006000
     35 C36          2.2160     0.3880   -21.2210 ca         1 41P      -0.006000
     36 C37          0.9630     0.0860   -20.6360 ca         1 41P      -0.075000
     37 C38          0.3000     1.0220   -19.8860 ca         1 41P      -0.096000
     38 C39          0.8590     2.3030   -19.6850 ca         1 41P      -0.096000
     39 C40          2.0760     2.6240   -20.2260 ca         1 41P      -0.075000
     40 O41          1.1610    -3.4370   -23.7210 o          1 41P      -0.535500
     41 O42          0.3460    -1.0840   -23.5240 o          1 41P      -0.535500
     42 H111         3.3410    -3.7260   -22.4880 h1         1 41P       0.068950
     43 H112         3.9300    -2.6970   -21.1900 h1         1 41P       0.068950
     44 H013         6.1000    -0.4290   -29.6080 h1         1 41P       0.046367
     45 H011         6.1080    -1.8340   -28.5240 h1         1 41P       0.046367
     46 H012         4.6810    -1.5100   -29.5490 h1         1 41P       0.046367
     47 H041         4.9230    -2.6910   -26.9540 ha         1 41P       0.130750
     48 H051         3.4240    -3.4230   -25.1500 ha         1 41P       0.136250
     49 H061         3.1100     1.2000   -26.8800 ha         1 41P       0.130750
     50 H071         1.6210     0.4670   -25.0380 ha         1 41P       0.136250
     51 H131         2.2070    -5.4480   -19.5440 hn         1 41P       0.318250
     52 H132         3.6140    -5.2110   -20.5280 hn         1 41P       0.318250
     53 H161         4.7210    -0.9790   -23.0890 ha         1 41P       0.117500
     54 H171         5.7450     1.2260   -22.6530 ha         1 41P       0.117500
     55 H201         6.6380     2.5960   -20.8420 h1         1 41P       0.068950
     56 H202         6.2700     4.2990   -20.5000 h1         1 41P       0.068950
     57 H221         5.0650     3.7520   -17.2410 hn         1 41P       0.318250
     58 H222         5.4380     4.8830   -18.4990 hn         1 41P       0.318250
     59 H261         7.3190     4.6640   -22.9560 ha         1 41P       0.136250
     60 H271         8.7930     3.7070   -24.6660 ha         1 41P       0.130750
     61 H301         9.6880     1.5340   -27.4060 h1         1 41P       0.046367
     62 H302         9.7770     3.1380   -26.6460 h1         1 41P       0.046367
     63 H303         9.5710     1.6790   -25.6310 h1         1 41P       0.046367
     64 H311         5.3950     1.9870   -26.6440 ha         1 41P       0.130750
     65 H321         3.9060     2.9360   -24.8980 ha         1 41P       0.136250
     66 H371         0.5530    -0.9020   -20.7820 ha         1 41P       0.135000
     67 H381        -0.6550     0.7800   -19.4380 ha         1 41P       0.116500
     68 H391         0.3210     3.0320   -19.0910 ha         1 41P       0.116500
     69 H401         2.5110     3.5980   -20.0630 ha         1 41P       0.135000
     70 O02          4.9410    -0.1780   -27.9750 os         1 41P      -0.349100
@<TRIPOS>BOND
     1     1     2 1   
     2     1    11 1   
     3     1    42 1   
     4     1    43 1   
     5     2    12 1   
     6     2    13 2   
     7     3    44 1   
     8     3    45 1   
     9     3    46 1   
    10     3    70 1   
    11     4     5 ar  
    12     4     7 ar  
    13     4    70 1   
    14     5     6 ar  
    15     5    47 1   
    16     6     9 ar  
    17     6    48 1   
    18     7     8 ar  
    19     7    49 1   
    20     8     9 ar  
    21     8    50 1   
    22     9    10 1   
    23    10    11 1   
    24    10    40 2   
    25    10    41 2   
    26    11    14 1   
    27    12    51 1   
    28    12    52 1   
    29    14    15 ar  
    30    14    35 ar  
    31    15    16 ar  
    32    15    53 1   
    33    16    17 ar  
    34    16    54 1   
    35    17    18 1   
    36    17    34 ar  
    37    18    19 1   
    38    18    23 1   
    39    19    20 1   
    40    19    55 1   
    41    19    56 1   
    42    20    21 1   
    43    20    22 2   
    44    21    57 1   
    45    21    58 1   
    46    23    24 1   
    47    23    32 2   
    48    23    33 2   
    49    24    25 ar  
    50    24    31 ar  
    51    25    26 ar  
    52    25    59 1   
    53    26    27 ar  
    54    26    60 1   
    55    27    28 1   
    56    27    30 ar  
    57    28    29 1   
    58    29    61 1   
    59    29    62 1   
    60    29    63 1   
    61    30    31 ar  
    62    30    64 1   
    63    31    65 1   
    64    34    35 ar  
    65    34    39 ar  
    66    35    36 ar  
    67    36    37 ar  
    68    36    66 1   
    69    37    38 ar  
    70    37    67 1   
    71    38    39 ar  
    72    38    68 1   
    73    39    69 1   
@<TRIPOS>SUBSTRUCTURE
     1 41P         1 TEMP              0 ****  ****    0 ROOT
