@<TRIPOS>MOLECULE
41P
   70    73     1     0     0
SMALL
No Charge or Current Charge


@<TRIPOS>ATOM
      1 C11          2.8880    -2.8950   -21.4250 c3         1 41P       0.137800
      2 C12          1.9270    -3.8240   -20.6160 c          1 41P       0.601100
      3 C01          5.9860    -1.1860   -28.4160 c3         1 41P       0.149900
      4 C03          4.0860    -0.7810   -26.8920 ca         1 41P       0.188100
      5 C04          4.2080    -2.0460   -26.2790 ca         1 41P      -0.190750
      6 C05          3.3460    -2.4060   -25.2300 ca         1 41P       0.022500
      7 C06          3.1050     0.1150   -26.4430 ca         1 41P      -0.190750
      8 C07          2.2470    -0.2340   -25.3880 ca         1 41P       0.022500
      9 C08          2.3640    -1.5010   -24.7840 ca         1 41P      -0.353500
     10 S09          1.2600    -1.9690   -23.4470 sy         1 41P       1.206600
     11 N10          2.2870    -1.7120   -22.1080 nh         1 41P      -0.773300
     12 N13          2.2550    -5.1380   -20.5730 nt         1 41P      -0.608000
     13 O14          0.9280    -3.4340   -20.0280 o          1 41P      -0.587100
     14 C15          2.8250    -0.4220   -21.9350 ca         1 41P       0.272000
     15 C16          4.1050    -0.1580   -22.4490 ca         1 41P      -0.118000
     16 C17          4.7060     1.0960   -22.2730 ca         1 41P      -0.118000
     17 C18          4.0380     2.1220   -21.5850 ca         1 41P       0.272000
     18 N19          4.6960     3.3530   -21.3900 nh         1 41P      -0.773300
     19 C20          5.9420     3.4260   -20.5670 c3         1 41P       0.137800
     20 C21          6.0910     2.3810   -19.4250 c          1 41P       0.601100
     21 N22          5.1630     2.4350   -18.4390 nt         1 41P      -0.608000
     22 O23          6.9750     1.5390   -19.3850 o          1 41P      -0.587100
     23 S24          4.4700     4.5370   -22.5940 sy         1 41P       1.206600
     24 C25          5.5350     3.8790   -23.8850 ca         1 41P      -0.353500
     25 C26          6.9070     4.1960   -23.8910 ca         1 41P       0.022500
     26 C27          7.7440     3.6780   -24.8940 ca         1 41P      -0.190750
     27 C28          7.2110     2.8480   -25.9020 ca         1 41P       0.188100
     28 O29          7.9830     2.3110   -26.9120 os         1 41P      -0.349100
     29 C30          9.3980     2.5540   -27.0070 c3         1 41P       0.149900
     30 C31          5.8420     2.5450   -25.8950 ca         1 41P      -0.190750
     31 C32          5.0000     3.0530   -24.8930 ca         1 41P       0.022500
     32 O33          5.0470     5.7840   -22.0810 o          1 41P      -0.535500
     33 O34          3.0720     4.4540   -23.0290 o          1 41P      -0.535500
     34 C35          2.7560     1.8650   -21.0320 ca         1 41P      -0.006000
     35 C36          2.1540     0.5890   -21.1980 ca         1 41P      -0.006000
     36 C37          0.8970     0.3360   -20.5960 ca         1 41P      -0.075000
     37 C38          0.2370     1.3340   -19.8640 ca         1 41P      -0.096000
     38 C39          0.8240     2.5970   -19.7140 ca         1 41P      -0.096000
     39 C40          2.0760     2.8600   -20.2890 ca         1 41P      -0.075000
     40 O41          1.0090    -3.4130   -23.5280 o          1 41P      -0.535500
     41 O42          0.1640    -0.9990   -23.3590 o          1 41P      -0.535500
     42 H111         3.4050    -3.5190   -22.1660 h1         1 41P       0.068950
     43 H112         3.6560    -2.5630   -20.7150 h1         1 41P       0.068950
     44 H013         6.5100    -0.6700   -29.2290 h1         1 41P       0.046367
     45 H011         6.7110    -1.3820   -27.6150 h1         1 41P       0.046367
     46 H012         5.6190    -2.1450   -28.8030 h1         1 41P       0.046367
     47 H041         4.9570    -2.7610   -26.6040 ha         1 41P       0.130750
     48 H051         3.4450    -3.3870   -24.7670 ha         1 41P       0.136250
     49 H061         3.0080     1.0880   -26.9170 ha         1 41P       0.130750
     50 H071         1.4950     0.4790   -25.0520 ha         1 41P       0.136250
     51 H131         1.6620    -5.7760   -20.0630 hn         1 41P       0.318250
     52 H132         3.0760    -5.4770   -21.0540 hn         1 41P       0.318250
     53 H161         4.6400    -0.9340   -22.9890 ha         1 41P       0.117500
     54 H171         5.7010     1.2730   -22.6730 ha         1 41P       0.117500
     55 H201         6.8230     3.3170   -21.2110 h1         1 41P       0.068950
     56 H202         6.0070     4.4090   -20.0830 h1         1 41P       0.068950
     57 H221         5.2070     1.7730   -17.6790 hn         1 41P       0.318250
     58 H222         4.4170     3.1120   -18.4930 hn         1 41P       0.318250
     59 H261         7.3320     4.8390   -23.1220 ha         1 41P       0.136250
     60 H271         8.7990     3.9350   -24.8740 ha         1 41P       0.130750
     61 H301         9.8150     2.0340   -27.8790 h1         1 41P       0.046367
     62 H302         9.6030     3.6260   -27.1210 h1         1 41P       0.046367
     63 H303         9.9180     2.1880   -26.1130 h1         1 41P       0.046367
     64 H311         5.4330     1.9120   -26.6740 ha         1 41P       0.130750
     65 H321         3.9410     2.7990   -24.9020 ha         1 41P       0.136250
     66 H371         0.4250    -0.6380   -20.6850 ha         1 41P       0.135000
     67 H381        -0.7300     1.1260   -19.4100 ha         1 41P       0.116500
     68 H391         0.3130     3.3710   -19.1460 ha         1 41P       0.116500
     69 H401         2.5140     3.8450   -20.1490 ha         1 41P       0.135000
     70 O02          4.8980    -0.3780   -27.9330 os         1 41P      -0.349100
@<TRIPOS>BOND
     1     1     2 1   
     2     1    11 1   
     3     1    42 1   
     4     1    43 1   
     5     2    12 1   
     6     2    13 2   
     7     3    44 1   
     8     3    45 1   
     9     3    46 1   
    10     3    70 1   
    11     4     5 ar  
    12     4     7 ar  
    13     4    70 1   
    14     5     6 ar  
    15     5    47 1   
    16     6     9 ar  
    17     6    48 1   
    18     7     8 ar  
    19     7    49 1   
    20     8     9 ar  
    21     8    50 1   
    22     9    10 1   
    23    10    11 1   
    24    10    40 2   
    25    10    41 2   
    26    11    14 1   
    27    12    51 1   
    28    12    52 1   
    29    14    15 ar  
    30    14    35 ar  
    31    15    16 ar  
    32    15    53 1   
    33    16    17 ar  
    34    16    54 1   
    35    17    18 1   
    36    17    34 ar  
    37    18    19 1   
    38    18    23 1   
    39    19    20 1   
    40    19    55 1   
    41    19    56 1   
    42    20    21 1   
    43    20    22 2   
    44    21    57 1   
    45    21    58 1   
    46    23    24 1   
    47    23    32 2   
    48    23    33 2   
    49    24    25 ar  
    50    24    31 ar  
    51    25    26 ar  
    52    25    59 1   
    53    26    27 ar  
    54    26    60 1   
    55    27    28 1   
    56    27    30 ar  
    57    28    29 1   
    58    29    61 1   
    59    29    62 1   
    60    29    63 1   
    61    30    31 ar  
    62    30    64 1   
    63    31    65 1   
    64    34    35 ar  
    65    34    39 ar  
    66    35    36 ar  
    67    36    37 ar  
    68    36    66 1   
    69    37    38 ar  
    70    37    67 1   
    71    38    39 ar  
    72    38    68 1   
    73    39    69 1   
@<TRIPOS>SUBSTRUCTURE
     1 41P         1 TEMP              0 ****  ****    0 ROOT
