@<TRIPOS>MOLECULE
41Q
   16    15     1     0     0
SMALL
bcc


@<TRIPOS>ATOM
      1 N           -7.6530     7.9790    22.9140 n8         1 41Q      -0.879800
      2 CA          -8.2100     9.3100    22.7480 c3         1 41Q       0.020500
      3 C           -9.5310     9.5540    23.5150 c          1 41Q       0.898600
      4 O          -10.1400    10.6400    23.2460 o          1 41Q      -0.791300
      5 CB          -8.3520     9.6050    21.2410 c3         1 41Q      -0.143700
      6 CG          -8.2470    11.0610    20.8450 c2         1 41Q       0.644600
      7 ND2         -7.4710    11.3870    19.8880 n2         1 41Q      -0.910100
      8 OD1         -8.9900    11.9160    21.5180 oh         1 41Q      -0.752600
      9 OXT         -9.9140     8.7250    24.3380 o          1 41Q      -0.791300
     10 H           -7.5910     7.7740    23.9040 hn         1 41Q       0.330300
     11 H1          -8.3150     7.3000    22.5540 hn         1 41Q       0.330300
     12 HA          -7.4760    10.0140    23.1650 h1         1 41Q       0.058700
     13 HB2         -9.3030     9.2040    20.8730 hc         1 41Q       0.053700
     14 HB1         -7.5650     9.0700    20.7140 hc         1 41Q       0.053700
     15 HD21        -7.5250    12.3900    19.7240 hn         1 41Q       0.354400
     16 HD11        -9.5180    11.4060    22.2770 ho         1 41Q       0.523000
@<TRIPOS>BOND
     1     1     2 1   
     2     1    10 1   
     3     1    11 1   
     4     2     3 1   
     5     2     5 1   
     6     2    12 1   
     7     3     4 1   
     8     3     9 1   
     9     5     6 1   
    10     5    13 1   
    11     5    14 1   
    12     6     7 2   
    13     6     8 1   
    14     7    15 1   
    15     8    16 1   
@<TRIPOS>SUBSTRUCTURE
     1 41Q         1 TEMP              0 ****  ****    0 ROOT
