@<TRIPOS>MOLECULE
41Q
   16    15     1     0     0
SMALL
No Charge or Current Charge


@<TRIPOS>ATOM
      1 N           -7.8580     7.7520    22.8100 n8         1 41Q      -0.990200
      2 CA          -8.1470     9.2270    22.6990 c3         1 41Q       0.020500
      3 C           -9.3500     9.7510    23.5910 c          1 41Q       0.688000
      4 O          -10.3200    10.2440    23.0300 o          1 41Q      -0.686000
      5 CB          -8.2800     9.5970    21.1920 c3         1 41Q      -0.143700
      6 CG          -8.2440    11.0870    20.9000 c2         1 41Q       0.644600
      7 ND2         -7.2700    11.6770    20.3430 n2         1 41Q      -0.910100
      8 OD1         -9.3310    11.7770    21.1860 oh         1 41Q      -0.791600
      9 OXT         -9.2620     9.6260    24.8040 o          1 41Q      -0.686000
     10 H           -7.7370     7.5130    23.8030 hn         1 41Q       0.385500
     11 H1          -8.6960     7.2200    22.5420 hn         1 41Q       0.385500
     12 HA          -7.2570     9.7500    23.0790 h1         1 41Q       0.058700
     13 HB2         -9.2040     9.1640    20.7890 hc         1 41Q       0.053700
     14 HB1         -7.4650     9.1140    20.6400 hc         1 41Q       0.053700
     15 HD21        -7.5470    12.6620    20.2460 hn         1 41Q       0.354400
     16 HD11        -9.8330    11.1750    21.8090 ho         1 41Q       0.562000
@<TRIPOS>BOND
     1     1     2 1   
     2     1    10 1   
     3     1    11 1   
     4     2     3 1   
     5     2     5 1   
     6     2    12 1   
     7     3     4 1   
     8     3     9 1   
     9     5     6 1   
    10     5    13 1   
    11     5    14 1   
    12     6     7 2   
    13     6     8 1   
    14     7    15 1   
    15     8    16 1   
@<TRIPOS>SUBSTRUCTURE
     1 41Q         1 TEMP              0 ****  ****    0 ROOT
