@<TRIPOS>MOLECULE
41R
   49    49     1     0     0
SMALL
abcg2


@<TRIPOS>ATOM
      1 C1          -2.8890     1.0370    -0.0120 c          1 41R       0.594100
      2 C2          -1.3730     0.9770     0.2230 c3         1 41R       0.163500
      3 C3           0.4680     1.3310     1.9440 c3         1 41R      -0.093100
      4 O4          -3.7040     0.8990     0.8790 o          1 41R      -0.565100
      5 C11         -1.0530    -1.4540     0.9420 c3         1 41R       0.232800
      6 C12         -1.8780    -2.6910     0.5690 c3         1 41R      -0.078700
      7 C13         -2.0580    -3.5270     1.8330 c3         1 41R      -0.087600
      8 C19          2.4860    -0.6860    -0.2060 ca         1 41R       0.007000
      9 C20          3.7080    -0.1650     0.1900 ca         1 41R      -0.133300
     10 C21          4.0080     1.1230    -0.2430 ca         1 41R       0.223000
     11 C22          3.1660     1.8770    -1.0330 ca         1 41R      -0.174000
     12 N3          -3.2090     1.2660    -1.2990 ns         1 41R      -0.375400
     13 C6          -1.0070     1.5180     1.6100 c3         1 41R      -0.067700
     14 N7          -0.9320    -0.3970    -0.0680 n3         1 41R      -0.771500
     15 S8           0.0320    -0.6200    -1.3840 sy         1 41R       1.184600
     16 O9           0.2030    -2.0520    -1.5600 o          1 41R      -0.543000
     17 O10         -0.5200     0.1750    -2.4750 o          1 41R      -0.543000
     18 C17         -3.2230    -2.3490    -0.0540 c3         1 41R      -0.087600
     19 C18          1.6140     0.0630    -0.9890 ca         1 41R      -0.312500
     20 C23          1.9460     1.3410    -1.4140 ca         1 41R       0.008000
     21 C25          4.6690    -0.9430     1.0340 c3         1 41R      -0.044800
     22 C4          -1.3630     3.0040     1.6780 c3         1 41R      -0.093100
     23 H1          -0.8900     1.6400    -0.5020 h1         1 41R       0.064700
     24 H2           1.1090     1.8710     1.2460 hc         1 41R       0.039533
     25 H3           0.6690     1.7220     2.9420 hc         1 41R       0.039533
     26 H4           0.7780     0.2870     1.9400 hc         1 41R       0.039533
     27 H5          -4.8660     1.9720    -1.8180 ho         1 41R       0.447000
     28 H6          -1.5240    -0.9840     1.8060 h1         1 41R       0.048700
     29 H7          -0.0630    -1.7710     1.2860 h1         1 41R       0.048700
     30 H8          -1.3120    -3.2890    -0.1450 hc         1 41R       0.075700
     31 H9          -2.6490    -2.9910     2.5800 hc         1 41R       0.037700
     32 H10         -2.5760    -4.4600     1.6080 hc         1 41R       0.037700
     33 H11         -1.1000    -3.7850     2.2870 hc         1 41R       0.037700
     34 H12          2.2280    -1.6910     0.1040 ha         1 41R       0.135000
     35 H13          3.4570     2.8690    -1.3510 ha         1 41R       0.139000
     36 H14         -2.5210     1.1530    -2.0330 hn         1 41R       0.357500
     37 H15         -1.6020     0.9980     2.3660 hc         1 41R       0.078700
     38 H16         -3.8380    -1.7560     0.6250 hc         1 41R       0.037700
     39 H17         -3.1090    -1.7880    -0.9830 hc         1 41R       0.037700
     40 H18         -3.7710    -3.2610    -0.2940 hc         1 41R       0.037700
     41 H19          1.2810     1.9210    -2.0380 ha         1 41R       0.141000
     42 H20          5.6110    -1.1150     0.5130 hc         1 41R       0.052033
     43 H21          4.9010    -0.4190     1.9620 hc         1 41R       0.052033
     44 H22          4.2500    -1.9120     1.2950 hc         1 41R       0.052033
     45 H23         -0.7830     3.5770     0.9510 hc         1 41R       0.039533
     46 H24         -2.4190     3.1930     1.4930 hc         1 41R       0.039533
     47 H25         -1.1310     3.3980     2.6680 hc         1 41R       0.039533
     48 F24          5.1830     1.6490     0.1220 f          1 41R      -0.169000
     49 O5          -4.4990     1.0860    -1.7050 oh         1 41R      -0.428100
@<TRIPOS>BOND
     1     1     2 1   
     2     1     4 2   
     3     1    12 1   
     4     2    13 1   
     5     2    14 1   
     6     2    23 1   
     7     3    13 1   
     8     3    24 1   
     9     3    25 1   
    10     3    26 1   
    11     5     6 1   
    12     5    14 1   
    13     5    28 1   
    14     5    29 1   
    15     6     7 1   
    16     6    18 1   
    17     6    30 1   
    18     7    31 1   
    19     7    32 1   
    20     7    33 1   
    21     8     9 ar  
    22     8    19 ar  
    23     8    34 1   
    24     9    10 ar  
    25     9    21 1   
    26    10    11 ar  
    27    10    48 1   
    28    11    20 ar  
    29    11    35 1   
    30    12    36 1   
    31    12    49 1   
    32    13    22 1   
    33    13    37 1   
    34    14    15 1   
    35    15    16 2   
    36    15    17 2   
    37    15    19 1   
    38    18    38 1   
    39    18    39 1   
    40    18    40 1   
    41    19    20 ar  
    42    20    41 1   
    43    21    42 1   
    44    21    43 1   
    45    21    44 1   
    46    22    45 1   
    47    22    46 1   
    48    22    47 1   
    49    27    49 1   
@<TRIPOS>SUBSTRUCTURE
     1 41R         1 TEMP              0 ****  ****    0 ROOT
