@<TRIPOS>MOLECULE
41R
   49    49     1     0     0
SMALL
No Charge or Current Charge


@<TRIPOS>ATOM
      1 C1          -2.4130     1.0940     0.0850 c          1 41R       0.594100
      2 C2          -0.9970     0.6580     0.6110 c3         1 41R       0.163500
      3 C3           0.6410     0.7360     2.6420 c3         1 41R      -0.093100
      4 O4          -3.4020     1.1880     0.8070 o          1 41R      -0.565100
      5 C11         -1.3900    -1.8280     1.1820 c3         1 41R       0.232800
      6 C12         -2.4090    -2.7350     0.4210 c3         1 41R      -0.078700
      7 C13         -2.9350    -3.8480     1.3580 c3         1 41R      -0.087600
      8 C19          2.5780    -0.2750    -0.0980 ca         1 41R       0.007000
      9 C20          3.6760     0.6060    -0.0900 ca         1 41R      -0.133300
     10 C21          3.7440     1.6250    -1.0610 ca         1 41R       0.223000
     11 C22          2.7340     1.7640    -2.0240 ca         1 41R      -0.174000
     12 N3          -2.4630     1.4360    -1.2660 ns         1 41R      -0.375400
     13 C6          -0.7320     1.1770     2.0710 c3         1 41R      -0.067700
     14 N7          -0.6420    -0.7940     0.4170 n3         1 41R      -0.771500
     15 S8           0.1520    -1.2520    -1.0220 sy         1 41R       1.184600
     16 O9           0.6930    -2.5920    -0.7730 o          1 41R      -0.543000
     17 O10         -0.7640    -0.9710    -2.1310 o          1 41R      -0.543000
     18 C17         -3.5920    -1.9750    -0.2190 c3         1 41R      -0.087600
     19 C18          1.5570    -0.1320    -1.0590 ca         1 41R      -0.312500
     20 C23          1.6370     0.8880    -2.0280 ca         1 41R       0.008000
     21 C25          4.7700     0.4590     0.9610 c3         1 41R      -0.044800
     22 C4          -0.8490     2.7210     2.1770 c3         1 41R      -0.093100
     23 H1          -0.3040     1.2510     0.0030 h1         1 41R       0.064700
     24 H2           1.4620     1.1470     2.0440 hc         1 41R       0.039533
     25 H3           0.7630     1.0910     3.6720 hc         1 41R       0.039533
     26 H4           0.7380    -0.3560     2.6590 hc         1 41R       0.039533
     27 H5          -3.5870     2.4980    -2.4340 ho         1 41R       0.447000
     28 H6          -1.9220    -1.3600     2.0190 h1         1 41R       0.048700
     29 H7          -0.6500    -2.4970     1.6410 h1         1 41R       0.048700
     30 H8          -1.8770    -3.2470    -0.3880 hc         1 41R       0.075700
     31 H9          -3.4940    -3.4200     2.1990 hc         1 41R       0.037700
     32 H10         -3.6000    -4.5320     0.8160 hc         1 41R       0.037700
     33 H11         -2.1050    -4.4400     1.7640 hc         1 41R       0.037700
     34 H12          2.5090    -1.0630     0.6520 ha         1 41R       0.135000
     35 H13          2.8020     2.5540    -2.7670 ha         1 41R       0.139000
     36 H14         -1.7020     1.1220    -1.8690 hn         1 41R       0.357500
     37 H15         -1.5020     0.7500     2.7240 hc         1 41R       0.078700
     38 H16         -4.1530    -1.4150     0.5380 hc         1 41R       0.037700
     39 H17         -3.2430    -1.2810    -0.9900 hc         1 41R       0.037700
     40 H18         -4.2830    -2.6760    -0.7030 hc         1 41R       0.037700
     41 H19          0.8600     1.0060    -2.7820 ha         1 41R       0.141000
     42 H20          5.7440     0.2770     0.4920 hc         1 41R       0.052033
     43 H21          4.8550     1.3690     1.5680 hc         1 41R       0.052033
     44 H22          4.5720    -0.3750     1.6450 hc         1 41R       0.052033
     45 H23         -0.1020     3.2100     1.5390 hc         1 41R       0.039533
     46 H24         -1.8410     3.0780     1.8800 hc         1 41R       0.039533
     47 H25         -0.6790     3.0500     3.2090 hc         1 41R       0.039533
     48 F24          4.7890     2.4840    -1.0730 f          1 41R      -0.169000
     49 O5          -3.7350     1.6650    -1.9270 oh         1 41R      -0.428100
@<TRIPOS>BOND
     1     1     2 1   
     2     1     4 2   
     3     1    12 1   
     4     2    13 1   
     5     2    14 1   
     6     2    23 1   
     7     3    13 1   
     8     3    24 1   
     9     3    25 1   
    10     3    26 1   
    11     5     6 1   
    12     5    14 1   
    13     5    28 1   
    14     5    29 1   
    15     6     7 1   
    16     6    18 1   
    17     6    30 1   
    18     7    31 1   
    19     7    32 1   
    20     7    33 1   
    21     8     9 ar  
    22     8    19 ar  
    23     8    34 1   
    24     9    10 ar  
    25     9    21 1   
    26    10    11 ar  
    27    10    48 1   
    28    11    20 ar  
    29    11    35 1   
    30    12    36 1   
    31    12    49 1   
    32    13    22 1   
    33    13    37 1   
    34    14    15 1   
    35    15    16 2   
    36    15    17 2   
    37    15    19 1   
    38    18    38 1   
    39    18    39 1   
    40    18    40 1   
    41    19    20 ar  
    42    20    41 1   
    43    21    42 1   
    44    21    43 1   
    45    21    44 1   
    46    22    45 1   
    47    22    46 1   
    48    22    47 1   
    49    27    49 1   
@<TRIPOS>SUBSTRUCTURE
     1 41R         1 TEMP              0 ****  ****    0 ROOT
