@<TRIPOS>MOLECULE
41S
   50    50     1     0     0
SMALL
bcc


@<TRIPOS>ATOM
      1 C1           1.4590     0.6420    -0.6520 c3         1 41S       0.168500
      2 C2           2.8070     1.2000    -0.1900 c          1 41S       0.667100
      3 C3          -4.1100    -2.0140    -0.9450 c3         1 41S       0.121700
      4 O5           4.0530     3.1850    -0.1400 oh         1 41S      -0.384100
      5 N6           1.0360    -0.4920     0.1610 n3         1 41S      -0.769500
      6 C10         -1.3350     0.5690     0.8830 ca         1 41S      -0.269500
      7 C11         -2.2280    -0.3370     0.3110 ca         1 41S      -0.112000
      8 C12         -3.4050     0.1300    -0.2500 ca         1 41S       0.088100
      9 C13         -3.6510     1.5100    -0.2060 ca         1 41S       0.155900
     10 C14         -2.7750     2.3970     0.3670 ca         1 41S      -0.165000
     11 C15         -1.5890     1.9250     0.9230 ca         1 41S      -0.046000
     12 O17         -4.3410    -0.6200    -0.8360 os         1 41S      -0.299900
     13 C19          2.5910    -2.4990     0.1280 c3         1 41S      -0.075700
     14 C18          1.2220    -1.9000    -0.1850 c3         1 41S       0.242800
     15 C28          1.4300     0.4580    -2.1860 c3         1 41S      -0.052700
     16 N4           2.8630     2.5420    -0.2840 ns         1 41S      -0.455400
     17 O3           3.7310     0.5190     0.2050 o          1 41S      -0.548100
     18 S7           0.1970    -0.0720     1.5120 sy         1 41S       1.326200
     19 O8          -0.0960    -1.2790     2.2650 o          1 41S      -0.604300
     20 O9           0.8880     1.0300     2.1660 o          1 41S      -0.604300
     21 F16         -4.7870     1.9530    -0.7470 f          1 41S      -0.120900
     22 C5           2.9380    -2.4330     1.6090 c3         1 41S      -0.087600
     23 C6           2.6080    -3.9380    -0.3770 c3         1 41S      -0.087600
     24 H1           0.7130     1.4320    -0.5000 h1         1 41S       0.047700
     25 H2          -4.0240    -2.4870     0.0370 h1         1 41S       0.047367
     26 H3          -4.9700    -2.4290    -1.4620 h1         1 41S       0.047367
     27 H4          -3.2090    -2.2280    -1.5260 h1         1 41S       0.047367
     28 H5           4.0720     3.5160     0.7670 ho         1 41S       0.411000
     29 H6           2.4930    -0.2810    -3.8940 hc         1 41S       0.042033
     30 H7           3.5180    -0.1150    -2.4770 hc         1 41S       0.042033
     31 H8           2.4070    -1.4700    -2.6100 hc         1 41S       0.042033
     32 H9          -0.0300     0.1760    -3.7500 hc         1 41S       0.042033
     33 H10         -0.2390    -0.9490    -2.4190 hc         1 41S       0.042033
     34 H11         -0.7260     0.7320    -2.2300 hc         1 41S       0.042033
     35 H12         -1.9980    -1.3940     0.3070 ha         1 41S       0.152000
     36 H13         -3.0100     3.4530     0.3800 ha         1 41S       0.157000
     37 H14         -0.8920     2.6180     1.3720 ha         1 41S       0.163000
     38 H15          3.3450    -1.9350    -0.4230 hc         1 41S       0.069700
     39 H16          0.4560    -2.4830     0.3280 h1         1 41S       0.051200
     40 H17          1.0060    -2.0170    -1.2460 h1         1 41S       0.051200
     41 H18          1.6110     1.4730    -2.5530 hc         1 41S       0.043700
     42 H19          2.1320     3.0970    -0.7060 hn         1 41S       0.330500
     43 H20          2.2360    -3.0150     2.2090 hc         1 41S       0.036867
     44 H21          3.9360    -2.8360     1.7830 hc         1 41S       0.036867
     45 H22          2.9320    -1.4080     1.9760 hc         1 41S       0.036867
     46 H23          1.8610    -4.5480     0.1380 hc         1 41S       0.036867
     47 H24          2.4000    -3.9940    -1.4480 hc         1 41S       0.036867
     48 H25          3.5830    -4.3970    -0.2080 hc         1 41S       0.036867
     49 C7           2.5230    -0.4060    -2.8110 c3         1 41S      -0.090100
     50 C8           0.0310     0.0780    -2.6660 c3         1 41S      -0.090100
@<TRIPOS>BOND
     1     1     2 1   
     2     1     5 1   
     3     1    15 1   
     4     1    24 1   
     5     2    16 1   
     6     2    17 2   
     7     3    12 1   
     8     3    25 1   
     9     3    26 1   
    10     3    27 1   
    11     4    16 1   
    12     4    28 1   
    13     5    14 1   
    14     5    18 1   
    15     6     7 ar  
    16     6    11 ar  
    17     6    18 1   
    18     7     8 ar  
    19     7    35 1   
    20     8     9 ar  
    21     8    12 1   
    22     9    10 ar  
    23     9    21 1   
    24    10    11 ar  
    25    10    36 1   
    26    11    37 1   
    27    13    14 1   
    28    13    22 1   
    29    13    23 1   
    30    13    38 1   
    31    14    39 1   
    32    14    40 1   
    33    15    41 1   
    34    15    49 1   
    35    15    50 1   
    36    16    42 1   
    37    18    19 2   
    38    18    20 2   
    39    22    43 1   
    40    22    44 1   
    41    22    45 1   
    42    23    46 1   
    43    23    47 1   
    44    23    48 1   
    45    29    49 1   
    46    30    49 1   
    47    31    49 1   
    48    32    50 1   
    49    33    50 1   
    50    34    50 1   
@<TRIPOS>SUBSTRUCTURE
     1 41S         1 TEMP              0 ****  ****    0 ROOT
