@<TRIPOS>MOLECULE
41S
   50    50     1     0     0
SMALL
No Charge or Current Charge


@<TRIPOS>ATOM
      1 C1           1.1680     0.2710    -0.9410 c3         1 41S       0.168500
      2 C2           2.3150     1.2190    -0.4370 c          1 41S       0.600100
      3 C3          -4.3120    -1.2020    -1.4910 c3         1 41S       0.144900
      4 O5           2.8880     3.3240     0.4640 oh         1 41S      -0.423100
      5 N6           0.7370    -0.8440    -0.0240 n3         1 41S      -0.769500
      6 C10         -1.3090     0.5990     1.0410 ca         1 41S      -0.269500
      7 C11         -2.2880    -0.0190     0.2310 ca         1 41S      -0.094000
      8 C12         -3.4430     0.6960    -0.1610 ca         1 41S       0.088100
      9 C13         -3.6050     2.0280     0.2760 ca         1 41S       0.191000
     10 C14         -2.6330     2.6420     1.0830 ca         1 41S      -0.147000
     11 C15         -1.4830     1.9320     1.4660 ca         1 41S      -0.028000
     12 O17         -4.4200     0.1340    -0.9670 os         1 41S      -0.323100
     13 C19          2.9030    -2.3350     0.2460 c3         1 41S      -0.075700
     14 C18          1.3890    -2.1840    -0.0940 c3         1 41S       0.242800
     15 C28          1.2810    -0.0470    -2.4710 c3         1 41S      -0.052700
     16 N4           1.9590     2.5420    -0.2440 ns         1 41S      -0.388400
     17 O3           3.4660     0.8640    -0.2050 o          1 41S      -0.548100
     18 S7           0.1780    -0.3150     1.4970 sy         1 41S       1.184600
     19 O8          -0.2600    -1.5160     2.2100 o          1 41S      -0.533500
     20 O9           1.1860     0.5880     2.0570 o          1 41S      -0.533500
     21 F16         -4.7020     2.7340    -0.0840 f          1 41S      -0.156000
     22 C5           3.2590    -2.0520     1.7250 c3         1 41S      -0.087600
     23 C6           3.3970    -3.7460    -0.1550 c3         1 41S      -0.087600
     24 H1           0.3070     0.9510    -0.9430 h1         1 41S       0.047700
     25 H2          -4.2610    -1.9380    -0.6780 h1         1 41S       0.047367
     26 H3          -5.1860    -1.4400    -2.1090 h1         1 41S       0.047367
     27 H4          -3.4150    -1.3050    -2.1160 h1         1 41S       0.047367
     28 H5           3.5160     2.5840     0.6640 ho         1 41S       0.450000
     29 H6           2.6180    -0.7700    -4.0380 hc         1 41S       0.042033
     30 H7           3.4640    -0.3470    -2.5500 hc         1 41S       0.042033
     31 H8           2.5370    -1.8590    -2.6590 hc         1 41S       0.042033
     32 H9           0.0370    -0.7420    -4.1350 hc         1 41S       0.042033
     33 H10         -0.1710    -1.6900    -2.6500 hc         1 41S       0.042033
     34 H11         -0.8890    -0.0730    -2.7790 hc         1 41S       0.042033
     35 H12         -2.1280    -1.0440    -0.0920 ha         1 41S       0.134000
     36 H13         -2.7740     3.6690     1.4090 ha         1 41S       0.139000
     37 H14         -0.7360     2.4200     2.0910 ha         1 41S       0.145000
     38 H15          3.4670    -1.6320    -0.3720 hc         1 41S       0.069700
     39 H16          0.8400    -2.8990     0.5330 h1         1 41S       0.051200
     40 H17          1.2460    -2.5720    -1.1080 h1         1 41S       0.051200
     41 H18          1.3580     0.9420    -2.9410 hc         1 41S       0.043700
     42 H19          0.9800     2.8180    -0.1900 hn         1 41S       0.330500
     43 H20          2.6120    -2.6240     2.4020 hc         1 41S       0.036867
     44 H21          4.2990    -2.3300     1.9330 hc         1 41S       0.036867
     45 H22          3.1630    -0.9890     1.9590 hc         1 41S       0.036867
     46 H23          2.8880    -4.5200     0.4320 hc         1 41S       0.036867
     47 H24          3.2070    -3.9400    -1.2170 hc         1 41S       0.036867
     48 H25          4.4770    -3.8430     0.0130 hc         1 41S       0.036867
     49 C7           2.5500    -0.8040    -2.9440 c3         1 41S      -0.090100
     50 C8          -0.0130    -0.6790    -3.0410 c3         1 41S      -0.090100
@<TRIPOS>BOND
     1     1     2 1   
     2     1     5 1   
     3     1    15 1   
     4     1    24 1   
     5     2    16 1   
     6     2    17 2   
     7     3    12 1   
     8     3    25 1   
     9     3    26 1   
    10     3    27 1   
    11     4    16 1   
    12     4    28 1   
    13     5    14 1   
    14     5    18 1   
    15     6     7 ar  
    16     6    11 ar  
    17     6    18 1   
    18     7     8 ar  
    19     7    35 1   
    20     8     9 ar  
    21     8    12 1   
    22     9    10 ar  
    23     9    21 1   
    24    10    11 ar  
    25    10    36 1   
    26    11    37 1   
    27    13    14 1   
    28    13    22 1   
    29    13    23 1   
    30    13    38 1   
    31    14    39 1   
    32    14    40 1   
    33    15    41 1   
    34    15    49 1   
    35    15    50 1   
    36    16    42 1   
    37    18    19 2   
    38    18    20 2   
    39    22    43 1   
    40    22    44 1   
    41    22    45 1   
    42    23    46 1   
    43    23    47 1   
    44    23    48 1   
    45    29    49 1   
    46    30    49 1   
    47    31    49 1   
    48    32    50 1   
    49    33    50 1   
    50    34    50 1   
@<TRIPOS>SUBSTRUCTURE
     1 41S         1 TEMP              0 ****  ****    0 ROOT
