@<TRIPOS>MOLECULE
41T
   53    53     1     0     0
SMALL
No Charge or Current Charge


@<TRIPOS>ATOM
      1 C1           2.5370    -0.0300     0.3070 c3         1 41T       0.168500
      2 C2           3.3260     1.3160     0.5110 c          1 41T       0.576100
      3 O5           5.0250     2.7460    -0.3070 oh         1 41T      -0.413100
      4 N6           1.1660     0.1290    -0.2910 n3         1 41T      -0.756500
      5 C7           1.1250    -0.0070    -1.7680 c3         1 41T       0.215800
      6 C8           1.2330    -1.4690    -2.2780 c3         1 41T      -0.067700
      7 C9          -0.0130    -2.3030    -1.8940 c3         1 41T      -0.089600
      8 C10          1.4700    -1.5100    -3.8050 c3         1 41T      -0.089600
      9 C14         -1.3390     1.1990    -0.2890 ca         1 41T      -0.300500
     10 C15         -2.0350     0.0700     0.1830 ca         1 41T       0.001000
     11 C16         -3.3360    -0.2040    -0.2790 ca         1 41T      -0.115300
     12 C19         -1.9440     2.0630    -1.2230 ca         1 41T       0.019000
     13 C20         -4.0780    -1.4350     0.2190 c3         1 41T       0.205900
     14 C22         -5.5290    -2.1690     2.0050 c3         1 41T       0.142900
     15 O3           3.3570     1.9610     1.5560 o          1 41T      -0.559100
     16 N4           4.1050     1.7110    -0.5580 ns         1 41T      -0.393400
     17 S11          0.3380     1.5010     0.2790 sy         1 41T       1.176600
     18 O12          0.3430     1.3790     1.7380 o          1 41T      -0.532000
     19 O13          0.9270     2.6590    -0.3990 o          1 41T      -0.532000
     20 C17         -3.9410     0.6640    -1.2080 ca         1 41T      -0.034000
     21 C18         -3.2460     1.7920    -1.6770 ca         1 41T      -0.133000
     22 O21         -4.7850    -1.0880     1.4210 os         1 41T      -0.445000
     23 C23          2.5710    -0.8940     1.6090 c3         1 41T      -0.061700
     24 C25          4.0130    -1.3270     1.9820 c3         1 41T      -0.087100
     25 H1           3.1440    -0.6010    -0.4060 h1         1 41T       0.055700
     26 H2           4.8190     2.8450     0.6560 ho         1 41T       0.439000
     27 H3           0.1890     0.3950    -2.1760 h1         1 41T       0.049200
     28 H4           1.9310     0.5920    -2.2140 h1         1 41T       0.049200
     29 H5           2.1040    -1.9410    -1.8090 hc         1 41T       0.043700
     30 H6           0.0980    -3.3420    -2.2270 hc         1 41T       0.038867
     31 H7          -0.1610    -2.3130    -0.8080 hc         1 41T       0.038867
     32 H8          -0.9180    -1.8880    -2.3540 hc         1 41T       0.038867
     33 H9           2.3850    -0.9650    -4.0700 hc         1 41T       0.038867
     34 H10          1.5820    -2.5440    -4.1530 hc         1 41T       0.038867
     35 H11          0.6300    -1.0550    -4.3440 hc         1 41T       0.038867
     36 H12         -1.5630    -0.6010     0.8980 ha         1 41T       0.124000
     37 H13         -1.4150     2.9370    -1.6020 ha         1 41T       0.151000
     38 H14         -4.7760    -1.7820    -0.5540 h1         1 41T       0.026200
     39 H15         -3.3590    -2.2430     0.4120 h1         1 41T       0.026200
     40 H16         -6.2870    -2.5440     1.3050 h1         1 41T       0.029033
     41 H17         -4.8640    -3.0000     2.2750 h1         1 41T       0.029033
     42 H18         -6.0410    -1.8320     2.9150 h1         1 41T       0.029033
     43 H19          1.7310    -2.7290     2.4680 hc         1 41T       0.037200
     44 H20          0.5960    -1.8400     1.4480 hc         1 41T       0.037200
     45 H21          1.9100    -2.7790     0.7010 hc         1 41T       0.037200
     46 H22          4.2840     1.0990    -1.3530 hn         1 41T       0.339500
     47 H23         -4.9470     0.4630    -1.5680 ha         1 41T       0.115000
     48 H24         -3.7170     2.4570    -2.3970 ha         1 41T       0.121000
     49 H25          2.2100    -0.2590     2.4250 hc         1 41T       0.102700
     50 H26          4.4450    -1.9600     1.1980 hc         1 41T       0.037200
     51 H27          4.6700    -0.4600     2.1230 hc         1 41T       0.037200
     52 H28          4.0160    -1.8970     2.9190 hc         1 41T       0.037200
     53 C24          1.6460    -2.1360     1.5490 c3         1 41T      -0.087100
@<TRIPOS>BOND
     1     1     2 1   
     2     1     4 1   
     3     1    23 1   
     4     1    25 1   
     5     2    15 2   
     6     2    16 1   
     7     3    16 1   
     8     3    26 1   
     9     4     5 1   
    10     4    17 1   
    11     5     6 1   
    12     5    27 1   
    13     5    28 1   
    14     6     7 1   
    15     6     8 1   
    16     6    29 1   
    17     7    30 1   
    18     7    31 1   
    19     7    32 1   
    20     8    33 1   
    21     8    34 1   
    22     8    35 1   
    23     9    10 ar  
    24     9    12 ar  
    25     9    17 1   
    26    10    11 ar  
    27    10    36 1   
    28    11    13 1   
    29    11    20 ar  
    30    12    21 ar  
    31    12    37 1   
    32    13    22 1   
    33    13    38 1   
    34    13    39 1   
    35    14    22 1   
    36    14    40 1   
    37    14    41 1   
    38    14    42 1   
    39    16    46 1   
    40    17    18 2   
    41    17    19 2   
    42    20    21 ar  
    43    20    47 1   
    44    21    48 1   
    45    23    24 1   
    46    23    49 1   
    47    23    53 1   
    48    24    50 1   
    49    24    51 1   
    50    24    52 1   
    51    43    53 1   
    52    44    53 1   
    53    45    53 1   
@<TRIPOS>SUBSTRUCTURE
     1 41T         1 TEMP              0 ****  ****    0 ROOT
