@<TRIPOS>MOLECULE
41T
   53    53     1     0     0
SMALL
bcc


@<TRIPOS>ATOM
      1 C1           2.2940    -0.0880    -0.0530 c3         1 41T       0.168500
      2 C2           1.9090     1.3140    -0.5300 c          1 41T       0.643100
      3 O5           1.4470     2.5690    -2.4590 oh         1 41T      -0.374100
      4 N6           1.1100    -0.8980     0.2680 n3         1 41T      -0.756500
      5 C7           0.5970    -1.7250    -0.8330 c3         1 41T       0.215800
      6 C8           1.4210    -2.9850    -1.0900 c3         1 41T      -0.067700
      7 C9           1.3740    -3.9550     0.0830 c3         1 41T      -0.089600
      8 C10          0.9120    -3.6460    -2.3680 c3         1 41T      -0.089600
      9 C14         -1.1710     0.5750     0.8990 ca         1 41T      -0.300500
     10 C15         -2.2120     0.0800     0.1220 ca         1 41T      -0.017000
     11 C16         -3.1880     0.9420    -0.3610 ca         1 41T      -0.115300
     12 C19         -1.1120     1.9190     1.2430 ca         1 41T       0.001000
     13 C20         -4.3360     0.3980    -1.1600 c3         1 41T       0.182700
     14 C22         -6.4330    -0.6070    -0.9110 c3         1 41T       0.119700
     15 O3           1.6610     2.2300     0.2290 o          1 41T      -0.559100
     16 N4           1.8770     1.4250    -1.8680 ns         1 41T      -0.460400
     17 S11          0.0690    -0.5480     1.5020 sy         1 41T       1.318200
     18 O12         -0.6270    -1.7880     1.8100 o          1 41T      -0.602800
     19 O13          0.8150     0.1210     2.5510 o          1 41T      -0.602800
     20 C17         -3.1210     2.2910    -0.0290 ca         1 41T      -0.052000
     21 C18         -2.0960     2.7740     0.7710 ca         1 41T      -0.151000
     22 O21         -5.3220    -0.0430    -0.2570 os         1 41T      -0.398600
     23 C23          3.3980    -0.0280     1.0100 c3         1 41T      -0.061700
     24 C25          4.6480     0.5870     0.3810 c3         1 41T      -0.087100
     25 H1           2.7380    -0.6220    -0.9000 h1         1 41T       0.055700
     26 H2           2.2310     3.1160    -2.6040 ho         1 41T       0.400000
     27 H3          -0.4250    -2.0330    -0.6210 h1         1 41T       0.049200
     28 H4           0.5450    -1.1170    -1.7410 h1         1 41T       0.049200
     29 H5           2.4650    -2.7000    -1.2620 hc         1 41T       0.043700
     30 H6           1.9730    -4.8410    -0.1350 hc         1 41T       0.038867
     31 H7           1.7600    -3.5100     0.9980 hc         1 41T       0.038867
     32 H8           0.3510    -4.2850     0.2770 hc         1 41T       0.038867
     33 H9           0.9660    -2.9690    -3.2220 hc         1 41T       0.038867
     34 H10          1.5020    -4.5300    -2.6100 hc         1 41T       0.038867
     35 H11         -0.1280    -3.9640    -2.2600 hc         1 41T       0.038867
     36 H12         -2.2830    -0.9750    -0.1110 ha         1 41T       0.142000
     37 H13         -0.3170     2.2980     1.8660 ha         1 41T       0.169000
     38 H14         -4.7350     1.1750    -1.8260 h1         1 41T       0.026200
     39 H15         -3.9950    -0.4290    -1.7970 h1         1 41T       0.026200
     40 H16         -6.9390     0.1170    -1.5610 h1         1 41T       0.029033
     41 H17         -6.1530    -1.4720    -1.5230 h1         1 41T       0.029033
     42 H18         -7.1380    -0.9360    -0.1490 h1         1 41T       0.029033
     43 H19          4.5500    -1.3540     2.2590 hc         1 41T       0.037200
     44 H20          2.8690    -1.8420     2.0960 hc         1 41T       0.037200
     45 H21          3.9930    -2.1030     0.7630 hc         1 41T       0.037200
     46 H22          2.1080     0.6720    -2.5010 hn         1 41T       0.339500
     47 H23         -3.8810     2.9700    -0.3960 ha         1 41T       0.133000
     48 H24         -2.0630     3.8220     1.0350 ha         1 41T       0.139000
     49 H25          3.0760     0.6150     1.8300 hc         1 41T       0.102700
     50 H26          4.9920    -0.0050    -0.4700 hc         1 41T       0.037200
     51 H27          4.4890     1.6090     0.0360 hc         1 41T       0.037200
     52 H28          5.4580     0.6200     1.1090 hc         1 41T       0.037200
     53 C24          3.7130    -1.4110     1.5620 c3         1 41T      -0.087100
@<TRIPOS>BOND
     1     1     2 1   
     2     1     4 1   
     3     1    23 1   
     4     1    25 1   
     5     2    15 2   
     6     2    16 1   
     7     3    16 1   
     8     3    26 1   
     9     4     5 1   
    10     4    17 1   
    11     5     6 1   
    12     5    27 1   
    13     5    28 1   
    14     6     7 1   
    15     6     8 1   
    16     6    29 1   
    17     7    30 1   
    18     7    31 1   
    19     7    32 1   
    20     8    33 1   
    21     8    34 1   
    22     8    35 1   
    23     9    10 ar  
    24     9    12 ar  
    25     9    17 1   
    26    10    11 ar  
    27    10    36 1   
    28    11    13 1   
    29    11    20 ar  
    30    12    21 ar  
    31    12    37 1   
    32    13    22 1   
    33    13    38 1   
    34    13    39 1   
    35    14    22 1   
    36    14    40 1   
    37    14    41 1   
    38    14    42 1   
    39    16    46 1   
    40    17    18 2   
    41    17    19 2   
    42    20    21 ar  
    43    20    47 1   
    44    21    48 1   
    45    23    24 1   
    46    23    49 1   
    47    23    53 1   
    48    24    50 1   
    49    24    51 1   
    50    24    52 1   
    51    43    53 1   
    52    44    53 1   
    53    45    53 1   
@<TRIPOS>SUBSTRUCTURE
     1 41T         1 TEMP              0 ****  ****    0 ROOT
