@<TRIPOS>MOLECULE
41U
   41    42     1     0     0
SMALL
No Charge or Current Charge


@<TRIPOS>ATOM
      1 C16         -4.4000    -0.6400    28.7940 c3         1 41U       0.142100
      2 O1         -11.4020    -2.8430    25.9010 os         1 41U      -0.326100
      3 C15         -5.7070    -1.4300    26.8280 c3         1 41U       0.158800
      4 C14         -6.6410    -2.5510    26.3240 c3         1 41U      -0.099400
      5 C13         -8.8640    -0.5650    25.5030 ca         1 41U      -0.089500
      6 C12         -9.6210     0.6070    25.3360 ca         1 41U      -0.117500
      7 C11        -10.3840     1.1110    26.4010 ca         1 41U      -0.108000
      8 C10        -10.3900     0.4410    27.6350 ca         1 41U      -0.117500
      9 O           -8.8070    -3.6880    26.4830 os         1 41U      -0.354100
     10 C3         -10.2240    -3.9150    22.5380 ca         1 41U      -0.079000
     11 C2          -8.9340    -4.3690    22.8550 ca         1 41U      -0.142000
     12 C1          -8.4680    -4.2960    24.1780 ca         1 41U      -0.099000
     13 N           -5.3820    -1.6020    28.2580 n7         1 41U      -0.861400
     14 C           -9.2860    -3.7560    25.1880 ca         1 41U       0.068100
     15 C4         -11.0580    -3.3980    23.5450 ca         1 41U      -0.192000
     16 C9          -9.6350    -0.7320    27.8030 ca         1 41U      -0.089500
     17 C8          -8.8610    -1.2480    26.7420 ca         1 41U      -0.106300
     18 C7          -8.0580    -2.5420    26.9580 c3         1 41U       0.221600
     19 C6         -12.6630    -2.1990    25.6530 c3         1 41U       0.146900
     20 C5         -10.6000    -3.3230    24.8810 ca         1 41U       0.133100
     21 H1          -4.2060    -0.8380    29.8560 h1         1 41U       0.030033
     22 H2          -3.4460    -0.7140    28.2550 h1         1 41U       0.030033
     23 H3          -4.7690     0.3900    28.7000 h1         1 41U       0.030033
     24 H4          -4.7850    -1.4600    26.2310 h1         1 41U       0.033200
     25 H5          -6.1770    -0.4520    26.6520 h1         1 41U       0.033200
     26 H6          -6.1680    -3.5210    26.5210 hc         1 41U       0.057700
     27 H7          -6.7160    -2.4600    25.2360 hc         1 41U       0.057700
     28 H8          -8.2940    -0.9450    24.6600 ha         1 41U       0.114500
     29 H9          -9.6190     1.1220    24.3780 ha         1 41U       0.112000
     30 H10        -10.9710     2.0180    26.2700 ha         1 41U       0.111000
     31 H11        -10.9840     0.8270    28.4600 ha         1 41U       0.112000
     32 H12        -10.5820    -3.9730    21.5120 ha         1 41U       0.112000
     33 H13         -8.2960    -4.7800    22.0760 ha         1 41U       0.116000
     34 H14         -7.4720    -4.6580    24.4200 ha         1 41U       0.122000
     35 H15         -6.2480    -1.5010    28.8000 hn         1 41U       0.403000
     36 H17        -12.0570    -3.0700    23.2720 ha         1 41U       0.117000
     37 H18         -9.6560    -1.2460    28.7620 ha         1 41U       0.114500
     38 H19         -7.9160    -2.6620    28.0400 h1         1 41U       0.079700
     39 H20        -13.1040    -1.8540    26.5960 h1         1 41U       0.041033
     40 H21        -12.5310    -1.3270    24.9990 h1         1 41U       0.041033
     41 H22        -13.3700    -2.8930    25.1800 h1         1 41U       0.041033
@<TRIPOS>BOND
     1     1    13 1   
     2     1    21 1   
     3     1    22 1   
     4     1    23 1   
     5     2    19 1   
     6     2    20 1   
     7     3     4 1   
     8     3    13 1   
     9     3    24 1   
    10     3    25 1   
    11     4    18 1   
    12     4    26 1   
    13     4    27 1   
    14     5     6 ar  
    15     5    17 ar  
    16     5    28 1   
    17     6     7 ar  
    18     6    29 1   
    19     7     8 ar  
    20     7    30 1   
    21     8    16 ar  
    22     8    31 1   
    23     9    14 1   
    24     9    18 1   
    25    10    11 ar  
    26    10    15 ar  
    27    10    32 1   
    28    11    12 ar  
    29    11    33 1   
    30    12    14 ar  
    31    12    34 1   
    32    13    35 1   
    33    14    20 ar  
    34    15    20 ar  
    35    15    36 1   
    36    16    17 ar  
    37    16    37 1   
    38    17    18 1   
    39    18    38 1   
    40    19    39 1   
    41    19    40 1   
    42    19    41 1   
@<TRIPOS>SUBSTRUCTURE
     1 41U         1 TEMP              0 ****  ****    0 ROOT
