@<TRIPOS>MOLECULE
41U
   41    42     1     0     0
SMALL
abcg2


@<TRIPOS>ATOM
      1 C16         -4.5980    -0.5940    28.8380 c3         1 41U       0.142100
      2 O1         -11.3180    -2.9210    25.9800 os         1 41U      -0.326100
      3 C15         -5.7320    -1.4710    26.8830 c3         1 41U       0.158800
      4 C14         -6.6350    -2.5630    26.3170 c3         1 41U      -0.099400
      5 C13         -8.8610    -0.6510    25.4330 ca         1 41U      -0.089500
      6 C12         -9.6080     0.5070    25.2520 ca         1 41U      -0.117500
      7 C11        -10.2910     1.0750    26.3230 ca         1 41U      -0.108000
      8 C10        -10.2220     0.4770    27.5780 ca         1 41U      -0.117500
      9 O           -8.8010    -3.7310    26.4450 os         1 41U      -0.354100
     10 C3         -10.2760    -3.7970    22.5580 ca         1 41U      -0.079000
     11 C2          -8.9850    -4.2390    22.8080 ca         1 41U      -0.142000
     12 C1          -8.4920    -4.2090    24.1110 ca         1 41U      -0.099000
     13 N           -5.5230    -1.6000    28.3240 n7         1 41U      -0.861400
     14 C           -9.2750    -3.7380    25.1560 ca         1 41U       0.068100
     15 C4         -11.0840    -3.3460    23.5990 ca         1 41U      -0.192000
     16 C9          -9.4840    -0.6880    27.7510 ca         1 41U      -0.089500
     17 C8          -8.8030    -1.2700    26.6830 ca         1 41U      -0.106300
     18 C7          -8.0460    -2.5580    26.9010 c3         1 41U       0.221600
     19 C6         -12.5790    -2.2970    25.7520 c3         1 41U       0.146900
     20 C5         -10.5970    -3.3200    24.9050 ca         1 41U       0.133100
     21 H1          -4.5350    -0.6730    29.9240 h1         1 41U       0.030033
     22 H2          -3.6020    -0.7690    28.4250 h1         1 41U       0.030033
     23 H3          -4.8910     0.4360    28.5840 h1         1 41U       0.030033
     24 H4          -4.7540    -1.5490    26.4000 h1         1 41U       0.033200
     25 H5          -6.1350    -0.4820    26.6160 h1         1 41U       0.033200
     26 H6          -6.1920    -3.5420    26.5170 hc         1 41U       0.057700
     27 H7          -6.6820    -2.4410    25.2340 hc         1 41U       0.057700
     28 H8          -8.3310    -1.0750    24.5920 ha         1 41U       0.114500
     29 H9          -9.6520     0.9700    24.2740 ha         1 41U       0.112000
     30 H10        -10.8700     1.9790    26.1820 ha         1 41U       0.111000
     31 H11        -10.7450     0.9160    28.4190 ha         1 41U       0.112000
     32 H12        -10.6720    -3.8100    21.5500 ha         1 41U       0.112000
     33 H13         -8.3610    -4.6030    22.0020 ha         1 41U       0.116000
     34 H14         -7.4900    -4.5510    24.3310 ha         1 41U       0.122000
     35 H15         -6.4100    -1.4910    28.8030 hn         1 41U       0.403000
     36 H17        -12.0910    -3.0160    23.3890 ha         1 41U       0.117000
     37 H18         -9.4390    -1.1580    28.7270 ha         1 41U       0.114500
     38 H19         -7.9920    -2.7410    27.9730 h1         1 41U       0.079700
     39 H20        -12.9330    -1.9770    26.7290 h1         1 41U       0.041033
     40 H21        -12.4690    -1.4280    25.0990 h1         1 41U       0.041033
     41 H22        -13.2960    -2.9960    25.3150 h1         1 41U       0.041033
@<TRIPOS>BOND
     1     1    13 1   
     2     1    21 1   
     3     1    22 1   
     4     1    23 1   
     5     2    19 1   
     6     2    20 1   
     7     3     4 1   
     8     3    13 1   
     9     3    24 1   
    10     3    25 1   
    11     4    18 1   
    12     4    26 1   
    13     4    27 1   
    14     5     6 ar  
    15     5    17 ar  
    16     5    28 1   
    17     6     7 ar  
    18     6    29 1   
    19     7     8 ar  
    20     7    30 1   
    21     8    16 ar  
    22     8    31 1   
    23     9    14 1   
    24     9    18 1   
    25    10    11 ar  
    26    10    15 ar  
    27    10    32 1   
    28    11    12 ar  
    29    11    33 1   
    30    12    14 ar  
    31    12    34 1   
    32    13    35 1   
    33    14    20 ar  
    34    15    20 ar  
    35    15    36 1   
    36    16    17 ar  
    37    16    37 1   
    38    17    18 1   
    39    18    38 1   
    40    19    39 1   
    41    19    40 1   
    42    19    41 1   
@<TRIPOS>SUBSTRUCTURE
     1 41U         1 TEMP              0 ****  ****    0 ROOT
