@<TRIPOS>MOLECULE
41X
   46    48     1     0     0
SMALL
bcc


@<TRIPOS>ATOM
      1 C12         -3.4890     2.9630     1.6610 c3         1 41X      -0.093100
      2 C11         -3.8400     1.6530     0.9970 c3         1 41X       0.139400
      3 O2          -2.6330     1.0400     0.5720 os         1 41X      -0.305900
      4 C10         -2.6980    -0.1460    -0.0580 ca         1 41X       0.119100
      5 C9          -3.8650    -0.8440    -0.3310 ca         1 41X      -0.194000
      6 C8          -3.8170    -2.0660    -1.0020 ca         1 41X      -0.125000
      7 C7          -2.6040    -2.5900    -1.4000 ca         1 41X      -0.132000
      8 C6          -1.4230    -1.9000    -1.1280 ca         1 41X      -0.180000
      9 C5          -1.4590    -0.6850    -0.4640 ca         1 41X       0.105100
     10 O1          -0.3830     0.0680    -0.1540 os         1 41X      -0.292900
     11 C4           0.8730    -0.2480    -0.7140 c3         1 41X       0.210400
     12 C13          1.5450    -1.4010    -0.0060 ca         1 41X      -0.116300
     13 C18          1.2920    -1.6840     1.3320 ca         1 41X      -0.104000
     14 C17          1.9530    -2.7300     1.9630 ca         1 41X      -0.133500
     15 C16          2.8790    -3.4970     1.2680 ca         1 41X      -0.122000
     16 C15          3.1390    -3.2150    -0.0670 ca         1 41X      -0.133500
     17 C14          2.4710    -2.1750    -0.6980 ca         1 41X      -0.104000
     18 C            1.7270     1.0140    -0.6540 c6         1 41X       0.116100
     19 O            1.9640     1.3300     0.6980 os         1 41X      -0.383600
     20 C3           2.8030     2.4590     0.8470 c6         1 41X       0.094400
     21 C2           2.2150     3.6720     0.1460 c6         1 41X       0.110800
     22 N            1.9080     3.4110    -1.2530 n7         1 41X      -0.786200
     23 C1           1.1060     2.2040    -1.3850 c6         1 41X       0.115800
     24 H1          -2.8540     2.8100     2.5330 hc         1 41X       0.047033
     25 H2          -2.9750     3.6320     0.9700 hc         1 41X       0.047033
     26 H3          -4.4010     3.4580     1.9920 hc         1 41X       0.047033
     27 H4          -4.3730     0.9990     1.6960 h1         1 41X       0.030200
     28 H5          -4.5020     1.8260     0.1410 h1         1 41X       0.030200
     29 H6          -4.8260    -0.4500    -0.0310 ha         1 41X       0.135000
     30 H7          -4.7390    -2.5950    -1.2040 ha         1 41X       0.130000
     31 H8          -2.5570    -3.5380    -1.9200 ha         1 41X       0.131000
     32 H9          -0.4810    -2.3350    -1.4350 ha         1 41X       0.141000
     33 H10          0.7600    -0.4980    -1.7790 h1         1 41X       0.049700
     34 H11          0.5750    -1.0970     1.8890 ha         1 41X       0.137500
     35 H12          1.7450    -2.9440     3.0030 ha         1 41X       0.130000
     36 H13          3.3920    -4.3120     1.7630 ha         1 41X       0.129000
     37 H14          3.8550    -3.8090    -0.6200 ha         1 41X       0.130000
     38 H15          2.6700    -1.9660    -1.7430 ha         1 41X       0.137500
     39 H16          2.6780     0.7690    -1.1570 h1         1 41X       0.033700
     40 H17          2.9130     2.6370     1.9190 h1         1 41X       0.047200
     41 H18          3.8020     2.2460     0.4390 h1         1 41X       0.047200
     42 H19          1.2930     3.9760     0.6520 h1         1 41X       0.063200
     43 H20          2.9110     4.5110     0.2130 h1         1 41X       0.063200
     44 H21          2.7740     3.2920    -1.7650 hn         1 41X       0.343800
     45 H23          0.9900     1.9650    -2.4450 h1         1 41X       0.072200
     46 H24          0.1100     2.4060    -0.9830 h1         1 41X       0.072200
@<TRIPOS>BOND
     1     1     2 1   
     2     1    24 1   
     3     1    25 1   
     4     1    26 1   
     5     2     3 1   
     6     2    27 1   
     7     2    28 1   
     8     3     4 1   
     9     4     5 ar  
    10     4     9 ar  
    11     5     6 ar  
    12     5    29 1   
    13     6     7 ar  
    14     6    30 1   
    15     7     8 ar  
    16     7    31 1   
    17     8     9 ar  
    18     8    32 1   
    19     9    10 1   
    20    10    11 1   
    21    11    12 1   
    22    11    18 1   
    23    11    33 1   
    24    12    13 ar  
    25    12    17 ar  
    26    13    14 ar  
    27    13    34 1   
    28    14    15 ar  
    29    14    35 1   
    30    15    16 ar  
    31    15    36 1   
    32    16    17 ar  
    33    16    37 1   
    34    17    38 1   
    35    18    19 1   
    36    18    23 1   
    37    18    39 1   
    38    19    20 1   
    39    20    21 1   
    40    20    40 1   
    41    20    41 1   
    42    21    22 1   
    43    21    42 1   
    44    21    43 1   
    45    22    23 1   
    46    22    44 1   
    47    23    45 1   
    48    23    46 1   
@<TRIPOS>SUBSTRUCTURE
     1 41X         1 TEMP              0 ****  ****    0 ROOT
