@<TRIPOS>MOLECULE
41X
   46    48     1     0     0
SMALL
No Charge or Current Charge


@<TRIPOS>ATOM
      1 C12         -3.6320     2.7160     1.9860 c3         1 41X      -0.093100
      2 C11         -3.9520     1.3950     1.2680 c3         1 41X       0.162600
      3 O2          -2.7430     0.9390     0.6400 os         1 41X      -0.329100
      4 C10         -2.6820    -0.2340    -0.0950 ca         1 41X       0.119100
      5 C9          -3.8170    -1.0580    -0.2760 ca         1 41X      -0.176000
      6 C8          -3.7190    -2.2400    -1.0290 ca         1 41X      -0.107000
      7 C7          -2.4940    -2.6080    -1.6050 ca         1 41X      -0.114000
      8 C6          -1.3600    -1.7980    -1.4320 ca         1 41X      -0.162000
      9 C5          -1.4440    -0.6080    -0.6720 ca         1 41X       0.105100
     10 O1          -0.3500     0.2230    -0.4790 os         1 41X      -0.316100
     11 C4           0.9980    -0.1280    -0.8660 c3         1 41X       0.233600
     12 C13          1.4910    -1.3270    -0.0420 ca         1 41X      -0.116300
     13 C18          1.2000    -1.4340     1.3350 ca         1 41X      -0.086000
     14 C17          1.6540    -2.5400     2.0750 ca         1 41X      -0.115500
     15 C16          2.4030    -3.5470     1.4460 ca         1 41X      -0.104000
     16 C15          2.7000    -3.4470     0.0770 ca         1 41X      -0.115500
     17 C14          2.2470    -2.3420    -0.6640 ca         1 41X      -0.086000
     18 C            1.9180     1.1330    -0.7440 c6         1 41X       0.139300
     19 O            2.0150     1.5440     0.6470 os         1 41X      -0.430000
     20 C3           2.9010     2.6700     0.8490 c6         1 41X       0.117600
     21 C2           2.4240     3.8930     0.0080 c6         1 41X       0.110800
     22 N            2.2680     3.5470    -1.4370 n7         1 41X      -0.841400
     23 C1           1.4180     2.3290    -1.6190 c6         1 41X       0.115800
     24 H1          -2.8560     2.5630     2.7460 hc         1 41X       0.047033
     25 H2          -3.2800     3.4690     1.2710 hc         1 41X       0.047033
     26 H3          -4.5290     3.1040     2.4830 hc         1 41X       0.047033
     27 H4          -4.3130     0.6600     1.9990 h1         1 41X       0.030200
     28 H5          -4.7380     1.5670     0.5210 h1         1 41X       0.030200
     29 H6          -4.7790    -0.7980     0.1560 ha         1 41X       0.117000
     30 H7          -4.5950    -2.8710    -1.1660 ha         1 41X       0.112000
     31 H8          -2.4240    -3.5240    -2.1900 ha         1 41X       0.113000
     32 H9          -0.4300    -2.1100    -1.8960 ha         1 41X       0.123000
     33 H10          1.0090    -0.4060    -1.9270 h1         1 41X       0.049700
     34 H11          0.6220    -0.6580     1.8340 ha         1 41X       0.119500
     35 H12          1.4240    -2.6140     3.1350 ha         1 41X       0.112000
     36 H13          2.7540    -4.4030     2.0190 ha         1 41X       0.111000
     37 H14          3.2810    -4.2260    -0.4110 ha         1 41X       0.112000
     38 H15          2.4840    -2.2760    -1.7240 ha         1 41X       0.119500
     39 H16          2.9220     0.8420    -1.0860 h1         1 41X       0.033700
     40 H17          2.9130     2.9300     1.9170 h1         1 41X       0.047200
     41 H18          3.9220     2.3840     0.5570 h1         1 41X       0.047200
     42 H19          1.4590     4.2400     0.4080 h1         1 41X       0.063200
     43 H20          3.1410     4.7200     0.1220 h1         1 41X       0.063200
     44 H21          3.2020     3.3470    -1.8190 hn         1 41X       0.399000
     45 H23          1.4110     2.0330    -2.6790 h1         1 41X       0.072200
     46 H24          0.3800     2.5670    -1.3420 h1         1 41X       0.072200
@<TRIPOS>BOND
     1     1     2 1   
     2     1    24 1   
     3     1    25 1   
     4     1    26 1   
     5     2     3 1   
     6     2    27 1   
     7     2    28 1   
     8     3     4 1   
     9     4     5 ar  
    10     4     9 ar  
    11     5     6 ar  
    12     5    29 1   
    13     6     7 ar  
    14     6    30 1   
    15     7     8 ar  
    16     7    31 1   
    17     8     9 ar  
    18     8    32 1   
    19     9    10 1   
    20    10    11 1   
    21    11    12 1   
    22    11    18 1   
    23    11    33 1   
    24    12    13 ar  
    25    12    17 ar  
    26    13    14 ar  
    27    13    34 1   
    28    14    15 ar  
    29    14    35 1   
    30    15    16 ar  
    31    15    36 1   
    32    16    17 ar  
    33    16    37 1   
    34    17    38 1   
    35    18    19 1   
    36    18    23 1   
    37    18    39 1   
    38    19    20 1   
    39    20    21 1   
    40    20    40 1   
    41    20    41 1   
    42    21    22 1   
    43    21    42 1   
    44    21    43 1   
    45    22    23 1   
    46    22    44 1   
    47    23    45 1   
    48    23    46 1   
@<TRIPOS>SUBSTRUCTURE
     1 41X         1 TEMP              0 ****  ****    0 ROOT
