@<TRIPOS>MOLECULE
41Y
   78    81     1     0     0
SMALL
No Charge or Current Charge


@<TRIPOS>ATOM
      1 C11        132.9160   141.7890   105.7650 c3         1 41Y       0.237800
      2 C12        134.4580   141.7520   105.6400 c3         1 41Y      -0.087100
      3 C13        132.3270   140.6690   104.8970 ca         1 41Y      -0.090300
      4 C14        131.5920   140.9790   103.7360 ca         1 41Y      -0.097500
      5 C15        131.0480   139.9550   102.9430 ca         1 41Y      -0.111500
      6 C16        131.2300   138.6020   103.2950 ca         1 41Y      -0.073300
      7 C01        127.8600   140.5010   113.1030 c3         1 41Y       0.148900
      8 C03        129.5520   141.1640   111.4260 ca         1 41Y       0.148100
      9 C04        128.7550   140.7270   110.3510 ca         1 41Y      -0.196000
     10 C05        129.2270   140.8590   109.0380 ca         1 41Y      -0.066000
     11 C06        130.4880   141.4280   108.7810 ca         1 41Y      -0.102300
     12 C07        131.3000   141.8640   109.8570 ca         1 41Y      -0.006300
     13 C08        132.6820   142.4630   109.5530 c6         1 41Y      -0.032100
     14 C09        132.9340   142.8060   108.0690 c6         1 41Y       0.170800
     15 N10        132.4240   141.7290   107.1780 n3         1 41Y      -0.724600
     16 C17        130.6380   137.4800   102.4380 c3         1 41Y      -0.018400
     17 C18        129.0950   137.5450   102.4080 c3         1 41Y      -0.083600
     18 C19        131.2370   137.4770   101.0140 c3         1 41Y      -0.083600
     19 C20        131.9680   138.2920   104.4540 ca         1 41Y      -0.111500
     20 C21        132.5130   139.3160   105.2470 ca         1 41Y      -0.097500
     21 C22        130.9380   141.5920   107.3200 c6         1 41Y       0.229800
     22 C23        130.1280   142.7610   106.6800 c3         1 41Y      -0.118100
     23 C24        130.8330   141.7290   111.1970 cp         1 41Y      -0.077000
     24 C25        131.6710   142.1770   112.3500 cp         1 41Y      -0.001000
     25 C26        132.8750   141.5150   112.6750 ca         1 41Y      -0.130000
     26 C27        133.6560   141.9390   113.7610 ca         1 41Y       0.158000
     27 C29        133.2510   143.0370   114.5500 ca         1 41Y       0.037100
     28 O30        133.9910   143.4180   115.6470 oh         1 41Y      -0.522100
     29 C31        132.0500   143.7190   114.2320 ca         1 41Y       0.222000
     30 N32        131.6450   144.8380   114.9850 nu         1 41Y      -0.953200
     31 C33        130.2600   145.2530   115.2660 c3         1 41Y       0.198800
     32 C34        130.2140   146.4650   116.2320 c3         1 41Y      -0.067700
     33 C35        130.7930   147.7530   115.5950 c3         1 41Y      -0.086100
     34 C36        128.7770   146.7060   116.7470 c3         1 41Y      -0.086100
     35 C37        131.2730   143.2760   113.1450 ca         1 41Y      -0.096000
     36 F28        134.7960   141.2690   114.0520 f          1 41Y      -0.174000
     37 H1         132.6010   142.7460   105.3270 h1         1 41Y       0.024700
     38 H2         134.9140   142.6770   106.0100 hc         1 41Y       0.041700
     39 H3         134.8760   140.9060   106.1990 hc         1 41Y       0.041700
     40 H4         134.7510   141.6460   104.5890 hc         1 41Y       0.041700
     41 H5         131.4400   142.0160   103.4470 ha         1 41Y       0.117500
     42 H6         130.4820   140.2180   102.0520 ha         1 41Y       0.111000
     43 H7         127.7380   140.5100   114.1930 h1         1 41Y       0.040700
     44 H8         127.0450   141.0900   112.6650 h1         1 41Y       0.040700
     45 H9         127.7700   139.4620   112.7600 h1         1 41Y       0.040700
     46 H11        128.6030   140.5230   108.2120 ha         1 41Y       0.113000
     47 H12        133.4470   141.7420   109.8670 hc         1 41Y       0.059700
     48 H13        132.8450   143.3660   110.1560 hc         1 41Y       0.059700
     49 H14        134.0160   142.9530   107.9530 h1         1 41Y       0.034200
     50 H15        132.4590   143.7680   107.8290 h1         1 41Y       0.034200
     51 H17        130.9010   136.5150   102.8900 hc         1 41Y       0.048700
     52 H18        128.6900   137.5220   103.4270 hc         1 41Y       0.034867
     53 H19        128.7460   138.4630   101.9210 hc         1 41Y       0.034867
     54 H20        128.6820   136.6900   101.8600 hc         1 41Y       0.034867
     55 H21        132.3310   137.4080   101.0590 hc         1 41Y       0.034867
     56 H22        130.8660   136.6200   100.4400 hc         1 41Y       0.034867
     57 H23        130.9730   138.3920   100.4710 hc         1 41Y       0.034867
     58 H24        132.1210   137.2560   104.7460 ha         1 41Y       0.111000
     59 H25        133.0740   139.0600   106.1430 ha         1 41Y       0.117500
     60 H26        130.6170   140.6770   106.8000 h1         1 41Y       0.071700
     61 H27        129.0510   142.5720   106.7510 hc         1 41Y       0.038700
     62 H28        130.3200   143.7160   107.1820 hc         1 41Y       0.038700
     63 H29        130.3540   142.8870   105.6160 hc         1 41Y       0.038700
     64 H30        133.1980   140.6600   112.0880 ha         1 41Y       0.138000
     65 H31        133.4170   143.9970   116.1930 ho         1 41Y       0.453000
     66 H32        132.3790   145.4800   115.2850 hn         1 41Y       0.441000
     67 H33        129.7400   145.5130   114.3340 h1         1 41Y       0.038200
     68 H34        129.7210   144.4120   115.7250 h1         1 41Y       0.038200
     69 H35        130.8290   146.2190   117.1080 hc         1 41Y       0.047700
     70 H36        130.7530   148.5870   116.3060 hc         1 41Y       0.035533
     71 H37        131.8400   147.6150   115.3020 hc         1 41Y       0.035533
     72 H38        130.2210   148.0370   114.7030 hc         1 41Y       0.035533
     73 H39        128.3900   145.8110   117.2490 hc         1 41Y       0.035533
     74 H40        128.7560   147.5320   117.4690 hc         1 41Y       0.035533
     75 H41        128.1020   146.9550   115.9200 hc         1 41Y       0.035533
     76 H42        130.3530   143.7940   112.8930 ha         1 41Y       0.128000
     77 H10        127.7760   140.2870   110.5110 ha         1 41Y       0.118000
     78 O02        129.1390   141.0500   112.7420 os         1 41Y      -0.347100
@<TRIPOS>BOND
     1     1     2 1   
     2     1     3 1   
     3     1    15 1   
     4     1    37 1   
     5     2    38 1   
     6     2    39 1   
     7     2    40 1   
     8     3     4 ar  
     9     3    20 ar  
    10     4     5 ar  
    11     4    41 1   
    12     5     6 ar  
    13     5    42 1   
    14     6    16 1   
    15     6    19 ar  
    16     7    43 1   
    17     7    44 1   
    18     7    45 1   
    19     7    78 1   
    20     8     9 ar  
    21     8    23 ar  
    22     8    78 1   
    23     9    10 ar  
    24     9    77 1   
    25    10    11 ar  
    26    10    46 1   
    27    11    12 ar  
    28    11    21 1   
    29    12    13 1   
    30    12    23 ar  
    31    13    14 1   
    32    13    47 1   
    33    13    48 1   
    34    14    15 1   
    35    14    49 1   
    36    14    50 1   
    37    15    21 1   
    38    16    17 1   
    39    16    18 1   
    40    16    51 1   
    41    17    52 1   
    42    17    53 1   
    43    17    54 1   
    44    18    55 1   
    45    18    56 1   
    46    18    57 1   
    47    19    20 ar  
    48    19    58 1   
    49    20    59 1   
    50    21    22 1   
    51    21    60 1   
    52    22    61 1   
    53    22    62 1   
    54    22    63 1   
    55    23    24 1   
    56    24    25 ar  
    57    24    35 ar  
    58    25    26 ar  
    59    25    64 1   
    60    26    27 ar  
    61    26    36 1   
    62    27    28 1   
    63    27    29 ar  
    64    28    65 1   
    65    29    30 1   
    66    29    35 ar  
    67    30    31 1   
    68    30    66 1   
    69    31    32 1   
    70    31    67 1   
    71    31    68 1   
    72    32    33 1   
    73    32    34 1   
    74    32    69 1   
    75    33    70 1   
    76    33    71 1   
    77    33    72 1   
    78    34    73 1   
    79    34    74 1   
    80    34    75 1   
    81    35    76 1   
@<TRIPOS>SUBSTRUCTURE
     1 41Y         1 TEMP              0 ****  ****    0 ROOT
