@<TRIPOS>MOLECULE
41Y
   78    81     1     0     0
SMALL
abcg2


@<TRIPOS>ATOM
      1 C11        133.0520   141.7400   105.9120 c3         1 41Y       0.237800
      2 C12        134.5630   141.4770   105.8590 c3         1 41Y      -0.087100
      3 C13        132.3330   140.6990   105.0770 ca         1 41Y      -0.090300
      4 C14        131.7020   141.0500   103.8860 ca         1 41Y      -0.097500
      5 C15        131.0640   140.0950   103.1030 ca         1 41Y      -0.111500
      6 C16        131.0330   138.7530   103.4870 ca         1 41Y      -0.073300
      7 C01        127.9570   141.0210   113.0490 c3         1 41Y       0.148900
      8 C03        129.6980   141.4220   111.4520 ca         1 41Y       0.148100
      9 C04        128.8660   141.0920   110.3850 ca         1 41Y      -0.196000
     10 C05        129.3460   141.2140   109.0890 ca         1 41Y      -0.066000
     11 C06        130.6370   141.6620   108.8290 ca         1 41Y      -0.102300
     12 C07        131.4770   141.9810   109.9000 ca         1 41Y      -0.006300
     13 C08        132.8840   142.4550   109.6300 c6         1 41Y      -0.032100
     14 C09        133.1810   142.7320   108.1590 c6         1 41Y       0.170800
     15 N10        132.5460   141.7340   107.2990 n3         1 41Y      -0.724600
     16 C17        130.3330   137.7070   102.6450 c3         1 41Y      -0.018400
     17 C18        128.8290   137.9880   102.5290 c3         1 41Y      -0.083600
     18 C19        130.9730   137.5750   101.2570 c3         1 41Y      -0.083600
     19 C20        131.6690   138.4060   104.6800 ca         1 41Y      -0.111500
     20 C21        132.3100   139.3590   105.4620 ca         1 41Y      -0.097500
     21 C22        131.0790   141.8300   107.3920 c6         1 41Y       0.229800
     22 C23        130.4670   143.1100   106.7890 c3         1 41Y      -0.118100
     23 C24        131.0090   141.8640   111.2200 cp         1 41Y      -0.077000
     24 C25        131.8630   142.2310   112.3790 cp         1 41Y      -0.001000
     25 C26        132.9920   141.4840   112.7190 ca         1 41Y      -0.130000
     26 C27        133.7430   141.8710   113.8090 ca         1 41Y       0.158000
     27 C29        133.4260   142.9700   114.6020 ca         1 41Y       0.037100
     28 O30        134.2230   143.2340   115.6800 oh         1 41Y      -0.522100
     29 C31        132.3100   143.7460   114.2430 ca         1 41Y       0.222000
     30 N32        131.9360   144.8940   114.9590 nu         1 41Y      -0.953200
     31 C33        130.6390   144.9070   115.6540 c3         1 41Y       0.198800
     32 C34        129.9310   146.2590   115.5610 c3         1 41Y      -0.067700
     33 C35        129.5260   146.5720   114.1210 c3         1 41Y      -0.086100
     34 C36        128.7200   146.2810   116.4930 c3         1 41Y      -0.086100
     35 C37        131.5540   143.3550   113.1350 ca         1 41Y      -0.096000
     36 F28        134.8300   141.1310   114.1570 f          1 41Y      -0.174000
     37 H1         132.8750   142.7190   105.4400 h1         1 41Y       0.024700
     38 H2         135.1420   142.3100   106.2550 hc         1 41Y       0.041700
     39 H3         134.8150   140.5750   106.4200 hc         1 41Y       0.041700
     40 H4         134.8620   141.3300   104.8200 hc         1 41Y       0.041700
     41 H5         131.7050   142.0870   103.5710 ha         1 41Y       0.117500
     42 H6         130.5780   140.4030   102.1830 ha         1 41Y       0.111000
     43 H7         127.8740   141.0390   114.1330 h1         1 41Y       0.040700
     44 H8         127.2930   141.7750   112.6180 h1         1 41Y       0.040700
     45 H9         127.6740   140.0320   112.6790 h1         1 41Y       0.040700
     46 H11        128.6950   140.9550   108.2610 ha         1 41Y       0.113000
     47 H12        133.5900   141.7070   109.9970 hc         1 41Y       0.059700
     48 H13        133.0830   143.3590   110.2120 hc         1 41Y       0.059700
     49 H14        134.2570   142.6810   108.0210 h1         1 41Y       0.034200
     50 H15        132.8800   143.7550   107.8890 h1         1 41Y       0.034200
     51 H17        130.4530   136.7490   103.1610 hc         1 41Y       0.048700
     52 H18        128.3630   138.0520   103.5140 hc         1 41Y       0.034867
     53 H19        128.6470   138.9300   102.0070 hc         1 41Y       0.034867
     54 H20        128.3350   137.1930   101.9660 hc         1 41Y       0.034867
     55 H21        132.0370   137.3440   101.3350 hc         1 41Y       0.034867
     56 H22        130.4890   136.7790   100.6870 hc         1 41Y       0.034867
     57 H23        130.8690   138.5040   100.6920 hc         1 41Y       0.034867
     58 H24        131.6600   137.3710   105.0030 ha         1 41Y       0.111000
     59 H25        132.7860   139.0630   106.3890 ha         1 41Y       0.117500
     60 H26        130.6730   140.9880   106.8310 h1         1 41Y       0.071700
     61 H27        129.3790   143.0510   106.8480 hc         1 41Y       0.038700
     62 H28        130.7800   144.0010   107.3360 hc         1 41Y       0.038700
     63 H29        130.7400   143.2300   105.7400 hc         1 41Y       0.038700
     64 H30        133.2860   140.6080   112.1590 ha         1 41Y       0.138000
     65 H31        133.7540   143.8040   116.3050 ho         1 41Y       0.453000
     66 H32        132.6740   145.2930   115.5220 hn         1 41Y       0.441000
     67 H33        130.0090   144.1440   115.1930 h1         1 41Y       0.038200
     68 H34        130.7680   144.6260   116.7050 h1         1 41Y       0.038200
     69 H35        130.6400   147.0260   115.8980 hc         1 41Y       0.047700
     70 H36        129.0570   147.5560   114.0510 hc         1 41Y       0.035533
     71 H37        130.3910   146.5560   113.4560 hc         1 41Y       0.035533
     72 H38        128.8080   145.8290   113.7590 hc         1 41Y       0.035533
     73 H39        129.0120   146.1010   117.5300 hc         1 41Y       0.035533
     74 H40        128.2100   147.2460   116.4480 hc         1 41Y       0.035533
     75 H41        128.0000   145.5080   116.2070 hc         1 41Y       0.035533
     76 H42        130.6980   143.9590   112.8670 ha         1 41Y       0.128000
     77 H10        127.8600   140.7360   110.5510 ha         1 41Y       0.118000
     78 O02        129.3190   141.3170   112.7590 os         1 41Y      -0.347100
@<TRIPOS>BOND
     1     1     2 1   
     2     1     3 1   
     3     1    15 1   
     4     1    37 1   
     5     2    38 1   
     6     2    39 1   
     7     2    40 1   
     8     3     4 ar  
     9     3    20 ar  
    10     4     5 ar  
    11     4    41 1   
    12     5     6 ar  
    13     5    42 1   
    14     6    16 1   
    15     6    19 ar  
    16     7    43 1   
    17     7    44 1   
    18     7    45 1   
    19     7    78 1   
    20     8     9 ar  
    21     8    23 ar  
    22     8    78 1   
    23     9    10 ar  
    24     9    77 1   
    25    10    11 ar  
    26    10    46 1   
    27    11    12 ar  
    28    11    21 1   
    29    12    13 1   
    30    12    23 ar  
    31    13    14 1   
    32    13    47 1   
    33    13    48 1   
    34    14    15 1   
    35    14    49 1   
    36    14    50 1   
    37    15    21 1   
    38    16    17 1   
    39    16    18 1   
    40    16    51 1   
    41    17    52 1   
    42    17    53 1   
    43    17    54 1   
    44    18    55 1   
    45    18    56 1   
    46    18    57 1   
    47    19    20 ar  
    48    19    58 1   
    49    20    59 1   
    50    21    22 1   
    51    21    60 1   
    52    22    61 1   
    53    22    62 1   
    54    22    63 1   
    55    23    24 1   
    56    24    25 ar  
    57    24    35 ar  
    58    25    26 ar  
    59    25    64 1   
    60    26    27 ar  
    61    26    36 1   
    62    27    28 1   
    63    27    29 ar  
    64    28    65 1   
    65    29    30 1   
    66    29    35 ar  
    67    30    31 1   
    68    30    66 1   
    69    31    32 1   
    70    31    67 1   
    71    31    68 1   
    72    32    33 1   
    73    32    34 1   
    74    32    69 1   
    75    33    70 1   
    76    33    71 1   
    77    33    72 1   
    78    34    73 1   
    79    34    74 1   
    80    34    75 1   
    81    35    76 1   
@<TRIPOS>SUBSTRUCTURE
     1 41Y         1 TEMP              0 ****  ****    0 ROOT
