@<TRIPOS>MOLECULE
420
   44    45     1     0     0
SMALL
No Charge or Current Charge


@<TRIPOS>ATOM
      1 C1           5.2720     1.2420     0.0830 c3         1 420      -0.003400
      2 C2           3.8390     0.8060     0.3950 c          1 420       0.604100
      3 O3           3.5750    -0.2450     0.9650 o          1 420      -0.585100
      4 N4           2.8610     1.6930    -0.0000 ns         1 420      -0.502900
      5 C5           1.4150     1.4900     0.1900 c3         1 420       0.091000
      6 C6           0.8190     0.4150    -0.7550 c3         1 420       0.199800
      7 N7          -0.6230     0.1950    -0.5130 n7         1 420      -0.895300
      8 S8          -1.7040     1.3960    -0.9330 sy         1 420       1.162600
      9 O9          -1.8470     2.2430     0.2530 o          1 420      -0.538000
     10 O10         -1.2550     1.9230    -2.2240 o          1 420      -0.538000
     11 C11         -3.2040     0.4090    -1.1620 ca         1 420      -0.302500
     12 C12         -3.7500     0.3720    -2.4640 ca         1 420       0.011000
     13 C13         -4.9170    -0.3530    -2.7270 ca         1 420      -0.155000
     14 C14         -5.5640    -1.0460    -1.7000 ca         1 420      -0.024000
     15 C15         -5.0490    -1.0290    -0.3840 ca         1 420      -0.067000
     16 C16         -3.8520    -0.3070    -0.1080 ca         1 420       0.061000
     17 C17         -3.3390    -0.3410     1.2120 ca         1 420      -0.156000
     18 C18         -3.9920    -1.0520     2.2260 ca         1 420      -0.054000
     19 C19         -5.1740    -1.7450     1.9470 ca         1 420      -0.172000
     20 C20         -5.7140    -1.7400     0.6520 ca         1 420       0.293000
     21 N21         -6.9230    -2.4460     0.4330 nh         1 420      -0.781400
     22 C22         -7.0210    -3.8830     0.7640 c3         1 420       0.170600
     23 C23         -8.1930    -1.7070     0.2690 c3         1 420       0.170600
     24 I            6.0330     3.0230     1.2270 i          1 420      -0.225000
     25 H11C         5.9580     0.4180     0.3080 h1         1 420       0.088700
     26 H12C         5.3460     1.5060    -0.9780 h1         1 420       0.088700
     27 H4           3.1760     2.5490    -0.4460 hn         1 420       0.319500
     28 H51C         1.2310     1.1940     1.2310 h1         1 420       0.076200
     29 H52C         0.9100     2.4500     0.0220 h1         1 420       0.076200
     30 H61C         1.0080     0.7050    -1.7980 h1         1 420       0.052700
     31 H62C         1.3610    -0.5250    -0.5830 h1         1 420       0.052700
     32 H7          -0.9570    -0.5720    -1.0940 hn         1 420       0.498000
     33 H12         -3.2790     0.9080    -3.2860 ha         1 420       0.142000
     34 H13         -5.3240    -0.3750    -3.7360 ha         1 420       0.121000
     35 H14         -6.4640    -1.6060    -1.9410 ha         1 420       0.131000
     36 H17         -2.4220     0.1680     1.4840 ha         1 420       0.124000
     37 H18         -3.5800    -1.0650     3.2330 ha         1 420       0.118000
     38 H19         -5.6790    -2.2830     2.7430 ha         1 420       0.120000
     39 H221        -7.4020    -4.0200     1.7850 h1         1 420       0.038200
     40 H222        -7.6980    -4.3920     0.0640 h1         1 420       0.038200
     41 H223        -6.0370    -4.3630     0.6890 h1         1 420       0.038200
     42 H231        -8.0000    -0.6430     0.0740 h1         1 420       0.038200
     43 H232        -8.7630    -2.1090    -0.5790 h1         1 420       0.038200
     44 H233        -8.8050    -1.7860     1.1770 h1         1 420       0.038200
@<TRIPOS>BOND
     1     1     2 1   
     2     1    24 1   
     3     1    25 1   
     4     1    26 1   
     5     2     3 2   
     6     2     4 1   
     7     4     5 1   
     8     4    27 1   
     9     5     6 1   
    10     5    28 1   
    11     5    29 1   
    12     6     7 1   
    13     6    30 1   
    14     6    31 1   
    15     7     8 1   
    16     7    32 1   
    17     8     9 2   
    18     8    10 2   
    19     8    11 1   
    20    11    12 ar  
    21    11    16 ar  
    22    12    13 ar  
    23    12    33 1   
    24    13    14 ar  
    25    13    34 1   
    26    14    15 ar  
    27    14    35 1   
    28    15    16 ar  
    29    15    20 ar  
    30    16    17 ar  
    31    17    18 ar  
    32    17    36 1   
    33    18    19 ar  
    34    18    37 1   
    35    19    20 ar  
    36    19    38 1   
    37    20    21 1   
    38    21    22 1   
    39    21    23 1   
    40    22    39 1   
    41    22    40 1   
    42    22    41 1   
    43    23    42 1   
    44    23    43 1   
    45    23    44 1   
@<TRIPOS>SUBSTRUCTURE
     1 420         1 TEMP              0 ****  ****    0 ROOT
