@<TRIPOS>MOLECULE
420
   44    45     1     0     0
SMALL
abcg2


@<TRIPOS>ATOM
      1 C1           4.2270    -0.0540    -1.3930 c3         1 420      -0.003400
      2 C2           3.2520     0.4070    -0.3350 c          1 420       0.604100
      3 O3           3.3140     0.0010     0.8140 o          1 420      -0.585100
      4 N4           2.3380     1.2880    -0.7650 ns         1 420      -0.502900
      5 C5           1.3260     1.8510     0.0960 c3         1 420       0.091000
      6 C6           0.1240     0.9230     0.2520 c3         1 420       0.199800
      7 N7          -0.8690     1.5090     1.1440 n7         1 420      -0.895300
      8 S8          -2.1740     2.2820     0.5250 sy         1 420       1.162600
      9 O9          -2.9090     2.8370     1.6500 o          1 420      -0.538000
     10 O10         -1.6780     3.1770    -0.5080 o          1 420      -0.538000
     11 C11         -3.1740     1.0470    -0.2800 ca         1 420      -0.302500
     12 C12         -3.2390     1.1040    -1.6470 ca         1 420       0.011000
     13 C13         -3.9580     0.1320    -2.3590 ca         1 420      -0.155000
     14 C14         -4.6210    -0.8540    -1.6860 ca         1 420      -0.024000
     15 C15         -4.6110    -0.9190    -0.2740 ca         1 420      -0.067000
     16 C16         -3.8410     0.0260     0.4630 ca         1 420       0.061000
     17 C17         -3.7490    -0.1260     1.8680 ca         1 420      -0.156000
     18 C18         -4.3720    -1.1740     2.4860 ca         1 420      -0.054000
     19 C19         -5.1640    -2.0850     1.7700 ca         1 420      -0.172000
     20 C20         -5.3250    -1.9560     0.4110 ca         1 420       0.293000
     21 N21         -6.1340    -2.8170    -0.3420 nh         1 420      -0.781400
     22 C22         -6.3770    -4.1300     0.2170 c3         1 420       0.170600
     23 C23         -7.3640    -2.2210    -0.8480 c3         1 420       0.170600
     24 I            6.1410     0.9060    -1.0520 i          1 420      -0.225000
     25 H11C         4.4060    -1.1230    -1.3060 h1         1 420       0.088700
     26 H12C         3.9330     0.1910    -2.4100 h1         1 420       0.088700
     27 H4           2.3310     1.5560    -1.7360 hn         1 420       0.319500
     28 H51C         1.7540     2.0640     1.0760 h1         1 420       0.076200
     29 H52C         1.0090     2.7980    -0.3370 h1         1 420       0.076200
     30 H61C        -0.3020     0.6900    -0.7280 h1         1 420       0.052700
     31 H62C         0.4330    -0.0250     0.6890 h1         1 420       0.052700
     32 H7          -1.0490     1.0020     2.0000 hn         1 420       0.498000
     33 H12         -2.7260     1.8840    -2.1930 ha         1 420       0.142000
     34 H13         -3.9700     0.1640    -3.4400 ha         1 420       0.121000
     35 H14         -5.1440    -1.6200    -2.2420 ha         1 420       0.131000
     36 H17         -3.2090     0.5780     2.4810 ha         1 420       0.124000
     37 H18         -4.2810    -1.2880     3.5580 ha         1 420       0.118000
     38 H19         -5.6700    -2.8720     2.3130 ha         1 420       0.120000
     39 H221        -7.0630    -4.1260     1.0740 h1         1 420       0.038200
     40 H222        -6.8190    -4.7610    -0.5540 h1         1 420       0.038200
     41 H223        -5.4400    -4.5890     0.5300 h1         1 420       0.038200
     42 H231        -7.1850    -1.2300    -1.2590 h1         1 420       0.038200
     43 H232        -7.7700    -2.8460    -1.6440 h1         1 420       0.038200
     44 H233        -8.1270    -2.1270    -0.0640 h1         1 420       0.038200
@<TRIPOS>BOND
     1     1     2 1   
     2     1    24 1   
     3     1    25 1   
     4     1    26 1   
     5     2     3 2   
     6     2     4 1   
     7     4     5 1   
     8     4    27 1   
     9     5     6 1   
    10     5    28 1   
    11     5    29 1   
    12     6     7 1   
    13     6    30 1   
    14     6    31 1   
    15     7     8 1   
    16     7    32 1   
    17     8     9 2   
    18     8    10 2   
    19     8    11 1   
    20    11    12 ar  
    21    11    16 ar  
    22    12    13 ar  
    23    12    33 1   
    24    13    14 ar  
    25    13    34 1   
    26    14    15 ar  
    27    14    35 1   
    28    15    16 ar  
    29    15    20 ar  
    30    16    17 ar  
    31    17    18 ar  
    32    17    36 1   
    33    18    19 ar  
    34    18    37 1   
    35    19    20 ar  
    36    19    38 1   
    37    20    21 1   
    38    21    22 1   
    39    21    23 1   
    40    22    39 1   
    41    22    40 1   
    42    22    41 1   
    43    23    42 1   
    44    23    43 1   
    45    23    44 1   
@<TRIPOS>SUBSTRUCTURE
     1 420         1 TEMP              0 ****  ****    0 ROOT
