@<TRIPOS>MOLECULE
421
   47    49     1     0     0
SMALL
No Charge or Current Charge


@<TRIPOS>ATOM
      1 C1           2.9930     0.0650     0.0420 ca         1 421      -0.037000
      2 C2           4.0600    -0.8460    -0.0530 ca         1 421      -0.096000
      3 C3           3.8140    -2.2250    -0.1360 ca         1 421      -0.097000
      4 C4           2.4900    -2.7210    -0.1410 ca         1 421      -0.135900
      5 C5           1.4250    -1.7970    -0.0230 ca         1 421      -0.057000
      6 C6           1.6610    -0.4030     0.0650 ca         1 421      -0.042000
      7 C7           0.5940     0.5280     0.1650 ca         1 421      -0.031000
      8 C8           0.8890     1.9070     0.2580 ca         1 421      -0.072000
      9 C9           2.2200     2.3770     0.2330 ca         1 421      -0.115600
     10 C10          3.2680     1.4410     0.1230 ca         1 421      -0.052000
     11 C11          2.2090    -4.1950    -0.1990 ce         1 421       0.659800
     12 N12          3.1470    -5.0040    -0.7360 nv         1 421      -1.075200
     13 N13          1.0990    -4.7070     0.1410 n2         1 421      -0.830100
     14 N14         -0.7510     0.0580     0.2100 ns         1 421      -0.164000
     15 C15         -1.9630     0.6740    -0.0840 c          1 421       0.616700
     16 C16         -3.2000    -0.1720     0.2160 ca         1 421      -0.111600
     17 O17         -2.0300     1.8210    -0.5130 o          1 421      -0.566100
     18 C18         -3.1230    -1.1530     1.2390 ca         1 421      -0.126000
     19 C19         -4.2320    -1.9360     1.5820 ca         1 421      -0.080000
     20 C20         -5.4480    -1.7520     0.9170 ca         1 421      -0.126000
     21 C21         -5.5580    -0.7960    -0.1000 ca         1 421       0.135100
     22 C22         -4.4410    -0.0040    -0.4780 ca         1 421      -0.115300
     23 C23         -4.5680     0.9890    -1.6440 c3         1 421      -0.056800
     24 O24         -6.7740    -0.6540    -0.7070 oh         1 421      -0.539100
     25 C25          2.4970     3.8620     0.3340 c          1 421       0.604700
     26 O26          1.6090     4.6980     0.4420 o          1 421      -0.479000
     27 O27          3.8320     4.1810     0.2950 os         1 421      -0.442100
     28 C28          4.2030     5.5690     0.3850 c3         1 421       0.154900
     29 H2           5.0870    -0.4880    -0.0570 ha         1 421       0.119000
     30 H3           4.6640    -2.9020    -0.1850 ha         1 421       0.122000
     31 H5           0.4090    -2.1820    -0.0140 ha         1 421       0.136000
     32 H8           0.0870     2.6300     0.3700 ha         1 421       0.155000
     33 H10          4.3030     1.7750     0.1050 ha         1 421       0.133000
     34 H121         3.8710    -4.5260    -1.2590 hn         1 421       0.463000
     35 H122         2.8090    -5.8610    -1.1590 hn         1 421       0.463000
     36 H13          1.2280    -5.7230     0.2110 hn         1 421       0.374400
     37 H14         -0.8430    -0.9000     0.5170 hn         1 421       0.167000
     38 H18         -2.2050    -1.3040     1.8050 ha         1 421       0.122000
     39 H19         -4.1530    -2.6770     2.3750 ha         1 421       0.121000
     40 H20         -6.3110    -2.3530     1.1930 ha         1 421       0.131000
     41 H231        -4.6790     2.0160    -1.2760 hc         1 421       0.050367
     42 H232        -3.6870     0.9550    -2.2940 hc         1 421       0.050367
     43 H233        -5.4190     0.7820    -2.3010 hc         1 421       0.050367
     44 H24         -6.7210     0.0970    -1.3340 ho         1 421       0.471000
     45 H281         5.2940     5.6770     0.3410 h1         1 421       0.049700
     46 H282         3.7710     6.1450    -0.4450 h1         1 421       0.049700
     47 H283         3.8560     6.0070     1.3300 h1         1 421       0.049700
@<TRIPOS>BOND
     1     1     2 ar  
     2     1     6 ar  
     3     1    10 ar  
     4     2     3 ar  
     5     2    29 1   
     6     3     4 ar  
     7     3    30 1   
     8     4     5 ar  
     9     4    11 1   
    10     5     6 ar  
    11     5    31 1   
    12     6     7 ar  
    13     7     8 ar  
    14     7    14 1   
    15     8     9 ar  
    16     8    32 1   
    17     9    10 ar  
    18     9    25 1   
    19    10    33 1   
    20    11    12 1   
    21    11    13 2   
    22    12    34 1   
    23    12    35 1   
    24    13    36 1   
    25    14    15 1   
    26    14    37 1   
    27    15    16 1   
    28    15    17 2   
    29    16    18 ar  
    30    16    22 ar  
    31    18    19 ar  
    32    18    38 1   
    33    19    20 ar  
    34    19    39 1   
    35    20    21 ar  
    36    20    40 1   
    37    21    22 ar  
    38    21    24 1   
    39    22    23 1   
    40    23    41 1   
    41    23    42 1   
    42    23    43 1   
    43    24    44 1   
    44    25    26 2   
    45    25    27 1   
    46    27    28 1   
    47    28    45 1   
    48    28    46 1   
    49    28    47 1   
@<TRIPOS>SUBSTRUCTURE
     1 421         1 TEMP              0 ****  ****    0 ROOT
