@<TRIPOS>MOLECULE
421
   47    49     1     0     0
SMALL
abcg2


@<TRIPOS>ATOM
      1 C1           2.9110     0.0880    -0.0260 ca         1 421      -0.037000
      2 C2           3.9170    -0.8410    -0.3730 ca         1 421      -0.096000
      3 C3           3.6140    -2.1550    -0.5890 ca         1 421      -0.097000
      4 C4           2.2800    -2.6100    -0.4720 ca         1 421      -0.135900
      5 C5           1.2900    -1.7260    -0.1220 ca         1 421      -0.057000
      6 C6           1.5750    -0.3650     0.1150 ca         1 421      -0.042000
      7 C7           0.5730     0.5800     0.4850 ca         1 421      -0.031000
      8 C8           0.8980     1.8950     0.6660 ca         1 421      -0.072000
      9 C9           2.2260     2.3420     0.4910 ca         1 421      -0.115600
     10 C10          3.2160     1.4530     0.1600 ca         1 421      -0.052000
     11 C11          1.9280    -4.0380    -0.7150 ce         1 421       0.659800
     12 N12          2.7730    -4.7050    -1.5530 nv         1 421      -1.075200
     13 N13          0.9230    -4.5310    -0.1010 n2         1 421      -0.830100
     14 N14         -0.7430     0.1270     0.6680 ns         1 421      -0.164000
     15 C15         -1.8460     0.6890     0.1050 c          1 421       0.616700
     16 C16         -3.1230    -0.0040     0.4630 ca         1 421      -0.111600
     17 O17         -1.8080     1.6690    -0.6140 o          1 421      -0.566100
     18 C18         -3.4000    -0.2030     1.8140 ca         1 421      -0.126000
     19 C19         -4.6050    -0.7700     2.1930 ca         1 421      -0.080000
     20 C20         -5.5250    -1.1470     1.2320 ca         1 421      -0.126000
     21 C21         -5.2420    -0.9560    -0.1180 ca         1 421       0.135100
     22 C22         -4.0320    -0.3810    -0.5310 ca         1 421      -0.115300
     23 C23         -3.7660    -0.2330    -2.0040 c3         1 421      -0.056800
     24 O24         -6.1860    -1.3560    -0.9940 oh         1 421      -0.539100
     25 C25          2.4970     3.7890     0.6990 c          1 421       0.604700
     26 O26          1.6470     4.5870     1.0130 o          1 421      -0.479000
     27 O27          3.7640     4.1060     0.5030 os         1 421      -0.442100
     28 C28          4.1380     5.4730     0.6750 c3         1 421       0.154900
     29 H2           4.9390    -0.4970    -0.4640 ha         1 421       0.119000
     30 H3           4.4060    -2.8490    -0.8380 ha         1 421       0.122000
     31 H5           0.2760    -2.0950    -0.0520 ha         1 421       0.136000
     32 H8           0.1390     2.6030     0.9660 ha         1 421       0.155000
     33 H10          4.2410     1.7740     0.0340 ha         1 421       0.133000
     34 H121         3.2550    -4.1820    -2.2660 hn         1 421       0.463000
     35 H122         2.4980    -5.6290    -1.8480 hn         1 421       0.463000
     36 H13          0.7630    -5.4970    -0.3720 hn         1 421       0.374400
     37 H14         -0.8710    -0.7380     1.1710 hn         1 421       0.167000
     38 H18         -2.6900     0.1080     2.5690 ha         1 421       0.122000
     39 H19         -4.8330    -0.9150     3.2400 ha         1 421       0.121000
     40 H20         -6.4700    -1.5920     1.5170 ha         1 421       0.131000
     41 H231        -4.3640     0.5700    -2.4410 hc         1 421       0.050367
     42 H232        -2.7270    -0.0100    -2.2240 hc         1 421       0.050367
     43 H233        -4.0020    -1.1520    -2.5450 hc         1 421       0.050367
     44 H24         -5.9360    -1.1540    -1.9020 ho         1 421       0.471000
     45 H281         5.2040     5.5170     0.4750 h1         1 421       0.049700
     46 H282         3.6120     6.1200    -0.0260 h1         1 421       0.049700
     47 H283         3.9470     5.8120     1.6930 h1         1 421       0.049700
@<TRIPOS>BOND
     1     1     2 ar  
     2     1     6 ar  
     3     1    10 ar  
     4     2     3 ar  
     5     2    29 1   
     6     3     4 ar  
     7     3    30 1   
     8     4     5 ar  
     9     4    11 1   
    10     5     6 ar  
    11     5    31 1   
    12     6     7 ar  
    13     7     8 ar  
    14     7    14 1   
    15     8     9 ar  
    16     8    32 1   
    17     9    10 ar  
    18     9    25 1   
    19    10    33 1   
    20    11    12 1   
    21    11    13 2   
    22    12    34 1   
    23    12    35 1   
    24    13    36 1   
    25    14    15 1   
    26    14    37 1   
    27    15    16 1   
    28    15    17 2   
    29    16    18 ar  
    30    16    22 ar  
    31    18    19 ar  
    32    18    38 1   
    33    19    20 ar  
    34    19    39 1   
    35    20    21 ar  
    36    20    40 1   
    37    21    22 ar  
    38    21    24 1   
    39    22    23 1   
    40    23    41 1   
    41    23    42 1   
    42    23    43 1   
    43    24    44 1   
    44    25    26 2   
    45    25    27 1   
    46    27    28 1   
    47    28    45 1   
    48    28    46 1   
    49    28    47 1   
@<TRIPOS>SUBSTRUCTURE
     1 421         1 TEMP              0 ****  ****    0 ROOT
