@<TRIPOS>MOLECULE
422
   53    57     1     0     0
SMALL
bcc


@<TRIPOS>ATOM
      1 C1          -1.7440    -1.3030     4.2700 ca         1 422      -0.122300
      2 C2          -2.5860    -0.6940     5.1840 ca         1 422      -0.050000
      3 C3          -3.7600    -1.3450     5.5790 ca         1 422      -0.109800
      4 C4          -4.0650    -2.6100     5.0320 ca         1 422      -0.038200
      5 C5          -3.2250    -3.2380     4.1190 ca         1 422      -0.152000
      6 C6          -2.0760    -2.5680     3.7500 ca         1 422      -0.101000
      7 C11         -4.8230    -1.0160     6.4730 cc         1 422      -0.137200
      8 C12         -5.7120    -2.0550     6.4390 cd         1 422      -0.096700
      9 N13         -5.2630    -3.0070     5.5560 na         1 422      -0.171400
     10 C14         -6.9680    -2.2280     7.1410 cd         1 422       0.413200
     11 C15         -8.1400    -2.9140     6.7020 ca         1 422      -0.206900
     12 C16         -9.0490    -2.7520     7.7610 ca         1 422      -0.046200
     13 N17         -8.4020    -2.0170     8.6940 na         1 422       0.000900
     14 N18         -7.1630    -1.7080     8.3320 nc         1 422      -0.485100
     15 C19         -8.5360    -3.5990     5.5450 ca         1 422      -0.059000
     16 C20         -9.8040    -4.1210     5.4950 ca         1 422      -0.134000
     17 C21        -10.6920    -3.9660     6.5850 ca         1 422       0.022000
     18 C22        -10.3390    -3.2790     7.7300 ca         1 422      -0.103000
     19 C23        -12.0020    -4.5300     6.4910 cg         1 422       0.228800
     20 C7          -0.4540    -0.6450     3.8490 c3         1 422       0.222100
     21 N2          -0.5630     0.7890     3.6990 n3         1 422      -0.722600
     22 C8           0.7410     1.4080     3.5600 c6         1 422       0.169300
     23 C9          -1.4400     1.1630     2.6050 c6         1 422       0.169300
     24 C10         -1.6350     2.6700     2.5500 c6         1 422      -0.071900
     25 C13          0.6330     2.9240     3.5200 c6         1 422      -0.071900
     26 C17         -0.3030     3.3990     2.4130 c6         1 422      -0.104700
     27 C18         -0.4500     4.9220     2.4390 c3         1 422       0.153800
     28 N3          -1.2850     5.5240     1.4190 n8         1 422      -0.892800
     29 N1         -13.0560    -4.9870     6.4120 n1         1 422      -0.352800
     30 H2          -2.3370     0.2850     5.5750 ha         1 422       0.151000
     31 H5          -3.4620    -4.2080     3.7020 ha         1 422       0.132000
     32 H6          -1.4110    -3.0320     3.0320 ha         1 422       0.126000
     33 H11         -4.9370    -0.1100     7.0460 ha         1 422       0.164000
     34 HN13        -5.6370    -3.9380     5.4800 hn         1 422       0.297700
     35 HN17        -8.7390    -1.7190     9.5930 hn         1 422       0.333700
     36 H19         -7.8800    -3.7050     4.6930 ha         1 422       0.144000
     37 H20        -10.1380    -4.6500     4.6140 ha         1 422       0.147000
     38 H22        -11.0330    -3.1590     8.5490 ha         1 422       0.152000
     39 H71          0.3080    -0.8400     4.6120 h1         1 422       0.034700
     40 H72         -0.0850    -1.1310     2.9280 h1         1 422       0.034700
     41 H81          1.2600     1.0550     2.6500 h1         1 422       0.032200
     42 H82          1.3620     1.1070     4.4070 h1         1 422       0.032200
     43 H91         -2.4050     0.6740     2.7410 h1         1 422       0.032200
     44 H92         -1.0410     0.8110     1.6350 h1         1 422       0.032200
     45 H101        -2.3000     2.9070     1.7160 hc         1 422       0.045700
     46 H102        -2.1390     2.9980     3.4660 hc         1 422       0.045700
     47 H131         0.2620     3.2800     4.4870 hc         1 422       0.045700
     48 H132         1.6310     3.3510     3.3860 hc         1 422       0.045700
     49 H17          0.1390     3.1150     1.4470 hc         1 422       0.041700
     50 H181         0.5460     5.3700     2.3680 h1         1 422       0.051200
     51 H182        -0.8430     5.2220     3.4160 h1         1 422       0.051200
     52 HN31        -2.2500     5.2440     1.5310 hn         1 422       0.339800
     53 HN32        -0.9970     5.2200     0.4990 hn         1 422       0.339800
@<TRIPOS>BOND
     1     1     2 ar  
     2     1     6 ar  
     3     1    20 1   
     4     2     3 ar  
     5     2    30 1   
     6     3     4 ar  
     7     3     7 1   
     8     4     5 ar  
     9     4     9 1   
    10     5     6 ar  
    11     5    31 1   
    12     6    32 1   
    13     7     8 2   
    14     7    33 1   
    15     8     9 1   
    16     8    10 1   
    17     9    34 1   
    18    10    11 1   
    19    10    14 2   
    20    11    12 ar  
    21    11    15 ar  
    22    12    13 1   
    23    12    18 ar  
    24    13    14 1   
    25    13    35 1   
    26    15    16 ar  
    27    15    36 1   
    28    16    17 ar  
    29    16    37 1   
    30    17    18 ar  
    31    17    19 1   
    32    18    38 1   
    33    19    29 3   
    34    20    21 1   
    35    20    39 1   
    36    20    40 1   
    37    21    22 1   
    38    21    23 1   
    39    22    25 1   
    40    22    41 1   
    41    22    42 1   
    42    23    24 1   
    43    23    43 1   
    44    23    44 1   
    45    24    26 1   
    46    24    45 1   
    47    24    46 1   
    48    25    26 1   
    49    25    47 1   
    50    25    48 1   
    51    26    27 1   
    52    26    49 1   
    53    27    28 1   
    54    27    50 1   
    55    27    51 1   
    56    28    52 1   
    57    28    53 1   
@<TRIPOS>SUBSTRUCTURE
     1 422         1 TEMP              0 ****  ****    0 ROOT
