@<TRIPOS>MOLECULE
422
   53    57     1     0     0
SMALL
No Charge or Current Charge


@<TRIPOS>ATOM
      1 C1          -1.8520    -1.2030     4.2820 ca         1 422      -0.122300
      2 C2          -2.6340    -0.8210     5.3960 ca         1 422      -0.032000
      3 C3          -3.8860    -1.4270     5.5620 ca         1 422      -0.109800
      4 C4          -4.3650    -2.3640     4.6860 ca         1 422      -0.038200
      5 C5          -3.6160    -2.7630     3.5720 ca         1 422      -0.134000
      6 C6          -2.3480    -2.1740     3.3730 ca         1 422      -0.083000
      7 C11         -4.8790    -1.2410     6.5770 cc         1 422      -0.187200
      8 C12         -5.9280    -2.0950     6.2520 cd         1 422      -0.096700
      9 N13         -5.6220    -2.8080     5.0670 na         1 422      -0.221700
     10 C14         -7.1420    -2.2120     7.0340 cd         1 422       0.413200
     11 C15         -8.2950    -3.0650     6.7920 ca         1 422      -0.206900
     12 C16         -9.1570    -2.8000     7.8110 ca         1 422      -0.046200
     13 N17         -8.5880    -1.8500     8.6340 na         1 422      -0.049400
     14 N18         -7.3230    -1.4800     8.1490 nc         1 422      -0.485100
     15 C19         -8.6070    -4.0000     5.7900 ca         1 422      -0.041000
     16 C20         -9.8520    -4.6620     5.8730 ca         1 422      -0.116000
     17 C21        -10.7500    -4.3850     6.9350 ca         1 422       0.022000
     18 C22        -10.4000    -3.4370     7.9240 ca         1 422      -0.085000
     19 C23        -12.0150    -5.0650     7.0080 cg         1 422       0.318000
     20 C7          -0.4810    -0.5690     4.0630 c3         1 422       0.222100
     21 N2          -0.5400     0.8910     3.8170 n3         1 422      -0.722600
     22 C8           0.8140     1.5080     3.7960 c6         1 422       0.169300
     23 C9          -1.3110     1.2420     2.5900 c6         1 422       0.169300
     24 C10         -1.4450     2.7750     2.4130 c6         1 422      -0.071900
     25 C13          0.7380     3.0490     3.6590 c6         1 422      -0.071900
     26 C17         -0.0530     3.4690     2.3920 c6         1 422      -0.104700
     27 C18         -0.1490     5.0180     2.2810 c3         1 422       0.153800
     28 N3          -0.7830     5.4810     1.0290 n8         1 422      -1.003200
     29 N1         -13.0440    -5.6140     7.0750 n1         1 422      -0.442000
     30 H2          -2.2750    -0.0760     6.1020 ha         1 422       0.133000
     31 H5          -3.9980    -3.5070     2.8760 ha         1 422       0.114000
     32 H6          -1.7510    -2.4690     2.5130 ha         1 422       0.108000
     33 H11         -4.8360    -0.5710     7.4340 ha         1 422       0.214000
     34 HN13        -6.1940    -3.4970     4.5940 hn         1 422       0.348000
     35 HN17        -8.9900    -1.4480     9.4800 hn         1 422       0.384000
     36 H19         -7.9290    -4.2200     4.9720 ha         1 422       0.126000
     37 H20        -10.1190    -5.3910     5.1100 ha         1 422       0.129000
     38 H22        -11.0730    -3.2090     8.7490 ha         1 422       0.134000
     39 H71          0.1250    -0.7690     4.9570 h1         1 422       0.034700
     40 H72          0.0200    -1.0700     3.2220 h1         1 422       0.034700
     41 H81          1.4030     1.1020     2.9600 h1         1 422       0.032200
     42 H82          1.3560     1.2650     4.7210 h1         1 422       0.032200
     43 H91         -2.3230     0.8120     2.6320 h1         1 422       0.032200
     44 H92         -0.8200     0.8200     1.7000 h1         1 422       0.032200
     45 H101        -1.9930     2.9800     1.4840 hc         1 422       0.045700
     46 H102        -2.0550     3.1820     3.2320 hc         1 422       0.045700
     47 H131         0.2630     3.4700     4.5560 hc         1 422       0.045700
     48 H132         1.7560     3.4610     3.6220 hc         1 422       0.045700
     49 H17          0.5020     3.1200     1.5090 hc         1 422       0.041700
     50 H181         0.8660     5.4410     2.3320 h1         1 422       0.051200
     51 H182        -0.7210     5.4070     3.1360 h1         1 422       0.051200
     52 HN31        -1.7140     5.0570     0.9570 hn         1 422       0.395000
     53 HN32        -0.2740     5.0780     0.2330 hn         1 422       0.395000
@<TRIPOS>BOND
     1     1     2 ar  
     2     1     6 ar  
     3     1    20 1   
     4     2     3 ar  
     5     2    30 1   
     6     3     4 ar  
     7     3     7 1   
     8     4     5 ar  
     9     4     9 1   
    10     5     6 ar  
    11     5    31 1   
    12     6    32 1   
    13     7     8 2   
    14     7    33 1   
    15     8     9 1   
    16     8    10 1   
    17     9    34 1   
    18    10    11 1   
    19    10    14 2   
    20    11    12 ar  
    21    11    15 ar  
    22    12    13 1   
    23    12    18 ar  
    24    13    14 1   
    25    13    35 1   
    26    15    16 ar  
    27    15    36 1   
    28    16    17 ar  
    29    16    37 1   
    30    17    18 ar  
    31    17    19 1   
    32    18    38 1   
    33    19    29 3   
    34    20    21 1   
    35    20    39 1   
    36    20    40 1   
    37    21    22 1   
    38    21    23 1   
    39    22    25 1   
    40    22    41 1   
    41    22    42 1   
    42    23    24 1   
    43    23    43 1   
    44    23    44 1   
    45    24    26 1   
    46    24    45 1   
    47    24    46 1   
    48    25    26 1   
    49    25    47 1   
    50    25    48 1   
    51    26    27 1   
    52    26    49 1   
    53    27    28 1   
    54    27    50 1   
    55    27    51 1   
    56    28    52 1   
    57    28    53 1   
@<TRIPOS>SUBSTRUCTURE
     1 422         1 TEMP              0 ****  ****    0 ROOT
