@<TRIPOS>MOLECULE
423
  160   165     1     0     0
SMALL
No Charge or Current Charge


@<TRIPOS>ATOM
      1 OBN         -3.3450     0.8070    -0.4710 oh         1 423      -0.713667
      2 CBM         -2.7770     1.2300    -1.7280 c3         1 423       0.144600
      3 CBK         -1.3820     1.8710    -1.4870 c3         1 423       0.191633
      4 OBL         -0.6740     0.9890    -0.5990 oh         1 423      -0.689000
      5 CBI         -0.5740     2.1130    -2.8040 c3         1 423       0.166300
      6 OBJ         -1.3710     2.8540    -3.7530 oh         1 423      -0.734667
      7 CBC          0.8380     2.7780    -2.5720 c6         1 423       0.159967
      8 OBD          0.6420     4.0360    -1.8620 os         1 423      -0.467667
      9 CAY          1.6330     3.0450    -3.8910 c6         1 423       0.049033
     10 NAX          1.8470     1.8210    -4.6980 ns         1 423      -0.476900
     11 CAV          0.9660     1.3040    -5.6190 c          1 423       0.604100
     12 OAU         -0.1120     1.8320    -5.8540 o          1 423      -0.644433
     13 CAW          1.4190     0.0140    -6.2880 c3         1 423      -0.177100
     14 CAZ          2.9840     3.6970    -3.4860 c6         1 423       0.166300
     15 OBA          3.8160     3.9570    -4.6270 oh         1 423      -0.662667
     16 CBB          2.7320     5.0030    -2.7080 c6         1 423      -0.107400
     17 CBE          1.8400     4.7800    -1.4570 c6         1 423       0.264000
     18 CBF          2.7310     4.0970    -0.2830 c          1 423       0.688667
     19 OBG          2.4530     2.9500     0.0470 o          1 423      -0.709167
     20 OBH          3.1530     4.8450     0.5950 o          1 423      -0.709167
     21 OCL          1.3620     6.1040    -1.0870 os         1 423      -0.457000
     22 CCM          0.3660     6.1910    -0.0380 c3         1 423       0.152300
     23 CCV          0.1070     7.6440     0.2890 cc         1 423       0.198633
     24 CCR          0.5630     8.7450    -0.3660 cd         1 423      -0.184000
     25 NCU         -0.6510     8.0160     1.3660 nc         1 423      -0.371333
     26 NCT         -0.6720     9.3250     1.4280 nd         1 423      -0.250467
     27 NCS          0.0760     9.7940     0.3760 na         1 423       0.129133
     28 CDH          0.3310    11.2310     0.1750 c3         1 423       0.055600
     29 CDL          1.8240    11.5960     0.3440 c3         1 423       0.203800
     30 NDK          2.7400    10.9960    -0.6760 n3         1 423      -0.815600
     31 CDM          4.1640    10.8990    -0.2400 c3         1 423       0.203800
     32 CDI          4.7880     9.5020    -0.4540 c3         1 423       0.055600
     33 NCX          5.0060     9.1300    -1.8590 na         1 423       0.129133
     34 CCW          4.2040     8.3470    -2.6500 cc         1 423      -0.184000
     35 NCY          6.1150     9.5510    -2.5300 nc         1 423      -0.250467
     36 NCZ          6.0280     9.0610    -3.7360 nd         1 423      -0.371333
     37 CDA          4.8650     8.3210    -3.8470 cd         1 423       0.198633
     38 CCP          4.4690     7.6350    -5.1360 c3         1 423       0.152300
     39 OCO          3.0420     7.3940    -5.1650 os         1 423      -0.457000
     40 CAK          2.4420     7.1340    -6.4640 c6         1 423       0.264000
     41 CAL          2.5090     8.4440    -7.4240 c          1 423       0.688667
     42 OAM          2.6420     9.5280    -6.8650 o          1 423      -0.709167
     43 OAN          3.0700     8.3010    -8.5090 o          1 423      -0.709167
     44 OAJ          3.1530     5.9830    -7.0040 os         1 423      -0.467667
     45 CAH          0.9690     6.7020    -6.1740 c6         1 423      -0.107400
     46 CAF          0.3120     5.9150    -7.3380 c6         1 423       0.166300
     47 OAG         -0.9810     5.4430    -6.9400 oh         1 423      -0.662667
     48 CAE          1.2150     4.7300    -7.8030 c6         1 423       0.049033
     49 NAD          0.5710     3.9750    -8.9040 ns         1 423      -0.476900
     50 CAB          0.8500     2.6770    -9.2600 c          1 423       0.604100
     51 OAA          1.7680     2.0450    -8.7560 o          1 423      -0.644433
     52 CAC         -0.0520     2.0950   -10.3380 c3         1 423      -0.177100
     53 CAI          2.5650     5.3860    -8.1930 c6         1 423       0.159967
     54 CAO          3.6550     4.5030    -8.8870 c3         1 423       0.166300
     55 OAP          3.9700     3.3200    -8.1270 oh         1 423      -0.734667
     56 CAQ          4.9530     5.3330    -9.1950 c3         1 423       0.191633
     57 OAR          4.6230     6.5420    -9.9320 oh         1 423      -0.689000
     58 CAS          6.0130     4.5000    -9.9870 c3         1 423       0.144600
     59 OAT          7.2550     5.2170   -10.1480 oh         1 423      -0.713667
     60 CDJ          2.5300    11.4100    -2.1050 c3         1 423       0.203800
     61 CDG          2.8910    12.8710    -2.4830 c3         1 423       0.055600
     62 NDC          1.9770    13.8880    -1.9410 na         1 423       0.129133
     63 CDB          0.6130    13.9380    -2.0750 cc         1 423      -0.184000
     64 NDD          2.4440    14.9240    -1.1850 nc         1 423      -0.250467
     65 NDE          1.3990    15.6080    -0.8050 nd         1 423      -0.371333
     66 CDF          0.2590    15.0200    -1.3200 cd         1 423       0.198633
     67 CCJ         -1.1340    15.5320    -1.0400 c3         1 423       0.152300
     68 OCI         -1.9420    14.4410    -0.5370 os         1 423      -0.457000
     69 CBY         -3.3320    14.7210    -0.2080 c6         1 423       0.264000
     70 CBZ         -3.4770    15.7630     1.0280 c          1 423       0.688667
     71 OCA         -4.1390    16.7760     0.8070 o          1 423      -0.709167
     72 OCB         -2.5090    15.8790     1.7730 o          1 423      -0.709167
     73 OBX         -3.9360    15.2130    -1.4400 os         1 423      -0.467667
     74 CBV         -3.9530    13.3260     0.1280 c6         1 423      -0.107400
     75 CBT         -5.4970    13.2760    -0.0080 c6         1 423       0.166300
     76 OBU         -5.9600    11.9310     0.1760 oh         1 423      -0.662667
     77 CBS         -5.9470    13.8290    -1.3930 c6         1 423       0.049033
     78 NBR         -7.4170    13.7510    -1.5590 ns         1 423      -0.476900
     79 CBP         -8.0830    13.6920    -2.7600 c          1 423       0.604100
     80 OBO         -7.4960    13.7730    -3.8310 o          1 423      -0.644433
     81 CBQ         -9.5930    13.5350    -2.6560 c3         1 423      -0.177100
     82 CBW         -5.3880    15.2730    -1.4530 c6         1 423       0.159967
     83 CCC         -5.8210    16.1800    -2.6530 c3         1 423       0.166300
     84 OCD         -5.5520    15.5660    -3.9330 oh         1 423      -0.734667
     85 CCE         -5.1520    17.5990    -2.5650 c3         1 423       0.191633
     86 OCF         -5.3660    18.1850    -1.2510 oh         1 423      -0.689000
     87 CCG         -5.6750    18.5700    -3.6730 c3         1 423       0.144600
     88 OCH         -4.9560    19.8210    -3.6800 oh         1 423      -0.713667
     89 H1          -4.2650     0.5040    -0.6580 ho         1 423       0.477000
     90 H2          -3.4350     1.9630    -2.2140 h1         1 423       0.017867
     91 H3          -2.6740     0.3710    -2.4050 h1         1 423       0.017867
     92 H4          -1.5420     2.8430    -1.0000 h1         1 423       0.073700
     93 H5          -1.4080     0.5830    -0.0750 ho         1 423       0.497667
     94 H6          -0.3820     1.1170    -3.2260 h1         1 423       0.012033
     95 H7          -1.0020     2.5940    -4.6470 ho         1 423       0.531333
     96 H8           1.4170     2.0850    -1.9480 h1         1 423       0.063700
     97 H9           1.0670     3.7660    -4.4980 h1         1 423       0.103700
     98 H10          2.7310     1.3360    -4.6020 hn         1 423       0.308167
     99 H11          0.7070    -0.3430    -7.0410 hc         1 423       0.050922
    100 H12          2.4220     0.1550    -6.7070 hc         1 423       0.050922
    101 H13          1.5950    -0.7420    -5.5150 hc         1 423       0.050922
    102 H14          3.5110     2.9990    -2.8180 h1         1 423       0.037700
    103 H15          3.3890     4.6630    -5.1620 ho         1 423       0.440667
    104 H16          3.6900     5.4400    -2.4010 hc         1 423       0.072533
    105 H17          2.2480     5.7360    -3.3620 hc         1 423       0.072533
    106 H19         -0.5770     5.7290    -0.3550 h1         1 423       0.061033
    107 H20          0.7020     5.6800     0.8730 h1         1 423       0.061033
    108 H21          1.1930     8.8530    -1.2380 h4         1 423       0.184667
    109 H22         -0.2550    11.7960     0.9100 h1         1 423       0.072867
    110 H23         -0.0240    11.5160    -0.8200 h1         1 423       0.072867
    111 H24          2.1130    11.2510     1.3460 h1         1 423       0.061033
    112 H25          1.9240    12.6870     0.3630 h1         1 423       0.061033
    113 H27          4.2420    11.1090     0.8350 h1         1 423       0.061033
    114 H28          4.7880    11.6520    -0.7400 h1         1 423       0.061033
    115 H29          4.1390     8.7500     0.0100 h1         1 423       0.072867
    116 H30          5.7550     9.4660     0.0610 h1         1 423       0.072867
    117 H31          3.2700     7.9120    -2.3270 h4         1 423       0.184667
    118 H32          5.0210     6.6910    -5.2200 h1         1 423       0.061033
    119 H33          4.7810     8.2750    -5.9710 h1         1 423       0.061033
    120 H35          0.3710     7.5930    -5.9420 hc         1 423       0.072533
    121 H36          0.9460     6.0790    -5.2720 hc         1 423       0.072533
    122 H37          0.1950     6.6060    -8.1880 h1         1 423       0.037700
    123 H38         -1.5300     6.2330    -6.7430 ho         1 423       0.440667
    124 H39          1.3780     4.0450    -6.9580 h1         1 423       0.103700
    125 H40         -0.2330     4.3940    -9.3550 hn         1 423       0.308167
    126 H41          0.2140     1.0650   -10.6010 hc         1 423       0.050922
    127 H42         -1.0950     2.1730   -10.0100 hc         1 423       0.050922
    128 H43         -0.0340     2.7540   -11.2140 hc         1 423       0.050922
    129 H44          2.3150     6.1570    -8.9300 h1         1 423       0.063700
    130 H45          3.2400     4.1920    -9.8550 h1         1 423       0.012033
    131 H46          3.1790     2.7190    -8.2610 ho         1 423       0.531333
    132 H47          5.4070     5.6020    -8.2310 h1         1 423       0.073700
    133 H48          4.1050     7.1400    -9.3210 ho         1 423       0.497667
    134 H49          5.5980     4.2360   -10.9690 h1         1 423       0.017867
    135 H50          6.2060     3.5600    -9.4530 h1         1 423       0.017867
    136 H51          7.8370     4.6590   -10.7120 ho         1 423       0.477000
    137 H52          1.4900    11.2250    -2.4010 h1         1 423       0.061033
    138 H53          3.1290    10.7660    -2.7580 h1         1 423       0.061033
    139 H54          3.9140    13.0950    -2.1600 h1         1 423       0.072867
    140 H55          2.8690    12.9590    -3.5750 h1         1 423       0.072867
    141 H56          0.0240    13.2270    -2.6370 h4         1 423       0.184667
    142 H57         -1.5500    15.9320    -1.9740 h1         1 423       0.061033
    143 H58         -1.0750    16.3550    -0.3170 h1         1 423       0.061033
    144 H60         -3.6590    13.0350     1.1450 hc         1 423       0.072533
    145 H61         -3.5170    12.5720    -0.5410 hc         1 423       0.072533
    146 H62         -5.9300    13.9170     0.7750 h1         1 423       0.037700
    147 H63         -5.7360    11.6720     1.0960 ho         1 423       0.440667
    148 H64         -5.4730    13.2310    -2.1860 h1         1 423       0.103700
    149 H65         -7.9850    13.6370    -0.7270 hn         1 423       0.308167
    150 H66        -10.0820    13.5010    -3.6360 hc         1 423       0.050922
    151 H67         -9.8190    12.6440    -2.0590 hc         1 423       0.050922
    152 H68         -9.9940    14.3410    -2.0320 hc         1 423       0.050922
    153 H69         -5.7600    15.7790    -0.5550 h1         1 423       0.063700
    154 H70         -6.9040    16.3320    -2.5620 h1         1 423       0.012033
    155 H71         -6.2270    14.8310    -4.0160 ho         1 423       0.531333
    156 H72         -4.0740    17.4660    -2.7350 h1         1 423       0.073700
    157 H73         -4.8440    17.6470    -0.5910 ho         1 423       0.497667
    158 H74         -6.7470    18.7480    -3.5130 h1         1 423       0.017867
    159 H75         -5.5700    18.0870    -4.6530 h1         1 423       0.017867
    160 H76         -5.3900    20.3970    -4.3510 ho         1 423       0.477000
@<TRIPOS>BOND
     1     1     2 1   
     2     1    89 1   
     3     2     3 1   
     4     2    90 1   
     5     2    91 1   
     6     3     4 1   
     7     3     5 1   
     8     3    92 1   
     9     4    93 1   
    10     5     6 1   
    11     5     7 1   
    12     5    94 1   
    13     6    95 1   
    14     7     8 1   
    15     7     9 1   
    16     7    96 1   
    17     8    17 1   
    18     9    10 1   
    19     9    14 1   
    20     9    97 1   
    21    10    11 1   
    22    10    98 1   
    23    11    12 2   
    24    11    13 1   
    25    13    99 1   
    26    13   100 1   
    27    13   101 1   
    28    14    15 1   
    29    14    16 1   
    30    14   102 1   
    31    15   103 1   
    32    16    17 1   
    33    16   104 1   
    34    16   105 1   
    35    17    18 1   
    36    17    21 1   
    37    18    19 1   
    38    18    20 1   
    39    21    22 1   
    40    22    23 1   
    41    22   106 1   
    42    22   107 1   
    43    23    24 2   
    44    23    25 1   
    45    24    27 1   
    46    24   108 1   
    47    25    26 2   
    48    26    27 1   
    49    27    28 1   
    50    28    29 1   
    51    28   109 1   
    52    28   110 1   
    53    29    30 1   
    54    29   111 1   
    55    29   112 1   
    56    30    31 1   
    57    30    60 1   
    58    31    32 1   
    59    31   113 1   
    60    31   114 1   
    61    32    33 1   
    62    32   115 1   
    63    32   116 1   
    64    33    34 1   
    65    33    35 1   
    66    34    37 2   
    67    34   117 1   
    68    35    36 2   
    69    36    37 1   
    70    37    38 1   
    71    38    39 1   
    72    38   118 1   
    73    38   119 1   
    74    39    40 1   
    75    40    41 1   
    76    40    44 1   
    77    40    45 1   
    78    41    42 1   
    79    41    43 1   
    80    44    53 1   
    81    45    46 1   
    82    45   120 1   
    83    45   121 1   
    84    46    47 1   
    85    46    48 1   
    86    46   122 1   
    87    47   123 1   
    88    48    49 1   
    89    48    53 1   
    90    48   124 1   
    91    49    50 1   
    92    49   125 1   
    93    50    51 2   
    94    50    52 1   
    95    52   126 1   
    96    52   127 1   
    97    52   128 1   
    98    53    54 1   
    99    53   129 1   
   100    54    55 1   
   101    54    56 1   
   102    54   130 1   
   103    55   131 1   
   104    56    57 1   
   105    56    58 1   
   106    56   132 1   
   107    57   133 1   
   108    58    59 1   
   109    58   134 1   
   110    58   135 1   
   111    59   136 1   
   112    60    61 1   
   113    60   137 1   
   114    60   138 1   
   115    61    62 1   
   116    61   139 1   
   117    61   140 1   
   118    62    63 1   
   119    62    64 1   
   120    63    66 2   
   121    63   141 1   
   122    64    65 2   
   123    65    66 1   
   124    66    67 1   
   125    67    68 1   
   126    67   142 1   
   127    67   143 1   
   128    68    69 1   
   129    69    70 1   
   130    69    73 1   
   131    69    74 1   
   132    70    71 1   
   133    70    72 1   
   134    73    82 1   
   135    74    75 1   
   136    74   144 1   
   137    74   145 1   
   138    75    76 1   
   139    75    77 1   
   140    75   146 1   
   141    76   147 1   
   142    77    78 1   
   143    77    82 1   
   144    77   148 1   
   145    78    79 1   
   146    78   149 1   
   147    79    80 2   
   148    79    81 1   
   149    81   150 1   
   150    81   151 1   
   151    81   152 1   
   152    82    83 1   
   153    82   153 1   
   154    83    84 1   
   155    83    85 1   
   156    83   154 1   
   157    84   155 1   
   158    85    86 1   
   159    85    87 1   
   160    85   156 1   
   161    86   157 1   
   162    87    88 1   
   163    87   158 1   
   164    87   159 1   
   165    88   160 1   
@<TRIPOS>SUBSTRUCTURE
     1 423         1 TEMP              0 ****  ****    0 ROOT
