@<TRIPOS>MOLECULE
423
  160   165     1     0     0
SMALL
abcg2


@<TRIPOS>ATOM
      1 OBN         -3.1680     1.5690    -0.9690 oh         1 423      -0.713667
      2 CBM         -2.4010     1.6400    -2.1550 c3         1 423       0.144600
      3 CBK         -0.9900     2.0410    -1.7490 c3         1 423       0.191633
      4 OBL         -0.4650     1.1090    -0.8310 oh         1 423      -0.689000
      5 CBI         -0.0530     2.0640    -2.9570 c3         1 423       0.166300
      6 OBJ         -0.6100     2.9240    -3.9210 oh         1 423      -0.734667
      7 CBC          1.3850     2.4670    -2.5970 c6         1 423       0.159967
      8 OBD          1.3280     3.6910    -1.9090 os         1 423      -0.467667
      9 CAY          2.2680     2.6060    -3.8530 c6         1 423       0.049033
     10 NAX          2.4540     1.3360    -4.5250 ns         1 423      -0.476900
     11 CAV          1.6770     0.8720    -5.5170 c          1 423       0.604100
     12 OAU          0.6970     1.4810    -5.9440 o          1 423      -0.644433
     13 CAW          2.0740    -0.4560    -6.1020 c3         1 423      -0.177100
     14 CAZ          3.6340     3.1870    -3.4850 c6         1 423       0.166300
     15 OBA          4.4090     3.4870    -4.6190 oh         1 423      -0.662667
     16 CBB          3.4330     4.4740    -2.7100 c6         1 423      -0.107400
     17 CBE          2.5580     4.2350    -1.4910 c6         1 423       0.264000
     18 CBF          3.2760     3.3780    -0.3870 c          1 423       0.688667
     19 OBG          2.5680     2.6200     0.2960 o          1 423      -0.709167
     20 OBH          4.4970     3.5880    -0.2710 o          1 423      -0.709167
     21 OCL          2.2540     5.4990    -0.9700 os         1 423      -0.457000
     22 CCM          1.5280     5.5380     0.2430 c3         1 423       0.152300
     23 CCV          0.9560     6.9030     0.3800 cc         1 423       0.198633
     24 CCR          0.3740     7.7060    -0.5700 cd         1 423      -0.184000
     25 NCU          0.9150     7.5620     1.5560 nc         1 423      -0.371333
     26 NCT          0.3400     8.7060     1.3820 nd         1 423      -0.250467
     27 NCS          0.0080     8.8030     0.1090 na         1 423       0.129133
     28 CDH         -0.5780    10.0220    -0.4040 c3         1 423       0.055600
     29 CDL          0.4270    11.1690    -0.4040 c3         1 423       0.203800
     30 NDK          1.6020    10.8790    -1.1950 n3         1 423      -0.815600
     31 CDM          2.8930    10.9250    -0.5480 c3         1 423       0.203800
     32 CDI          3.6740     9.6180    -0.6160 c3         1 423       0.055600
     33 NCX          4.0130     9.2440    -1.9760 na         1 423       0.129133
     34 CCW          3.5680     8.1970    -2.6880 cc         1 423      -0.184000
     35 NCY          4.7970    10.0150    -2.7050 nc         1 423      -0.250467
     36 NCZ          4.8730     9.4980    -3.8860 nd         1 423      -0.371333
     37 CDA          4.1350     8.3700    -3.9280 cd         1 423       0.198633
     38 CCP          4.0380     7.5300    -5.1530 c3         1 423       0.152300
     39 OCO          2.6930     7.1030    -5.2860 os         1 423      -0.457000
     40 CAK          2.2600     6.6970    -6.5540 c6         1 423       0.264000
     41 CAL          2.2430     7.9500    -7.4960 c          1 423       0.688667
     42 OAM          1.2430     8.6750    -7.4180 o          1 423      -0.709167
     43 OAN          3.2600     8.1490    -8.2020 o          1 423      -0.709167
     44 OAJ          3.1540     5.7200    -7.0110 os         1 423      -0.467667
     45 CAH          0.8900     6.0580    -6.3530 c6         1 423      -0.107400
     46 CAF          0.4250     5.3030    -7.5930 c6         1 423       0.166300
     47 OAG         -0.7470     4.5640    -7.3440 oh         1 423      -0.662667
     48 CAE          1.5040     4.3300    -8.0650 c6         1 423       0.049033
     49 NAD          1.0780     3.6980    -9.2960 ns         1 423      -0.476900
     50 CAB          1.4190     2.4630    -9.6830 c          1 423       0.604100
     51 OAA          2.1930     1.7450    -9.0490 o          1 423      -0.644433
     52 CAC          0.7970     1.9760   -10.9640 c3         1 423      -0.177100
     53 CAI          2.8060     5.1260    -8.2420 c6         1 423       0.159967
     54 CAO          4.0090     4.3120    -8.7140 c3         1 423       0.166300
     55 OAP          4.2480     3.1820    -7.9130 oh         1 423      -0.734667
     56 CAQ          5.2800     5.1850    -8.7250 c3         1 423       0.191633
     57 OAR          5.0610     6.4210    -9.3500 oh         1 423      -0.689000
     58 CAS          6.3840     4.4670    -9.4790 c3         1 423       0.144600
     59 OAT          7.5930     5.1770    -9.3200 oh         1 423      -0.713667
     60 CDJ          1.5290    11.2180    -2.5950 c3         1 423       0.203800
     61 CDG          2.0230    12.6170    -2.9830 c3         1 423       0.055600
     62 NDC          1.3410    13.6570    -2.2440 na         1 423       0.129133
     63 CDB          0.1180    14.1640    -2.4630 cc         1 423      -0.184000
     64 NDD          1.8350    14.1000    -1.1000 nc         1 423      -0.250467
     65 NDE          0.9640    14.8860    -0.5680 nd         1 423      -0.371333
     66 CDF         -0.1190    14.9590    -1.3700 cd         1 423       0.198633
     67 CCJ         -1.3390    15.7250    -1.0080 c3         1 423       0.152300
     68 OCI         -2.2940    14.7730    -0.5580 os         1 423      -0.457000
     69 CBY         -3.5490    15.2380    -0.1590 c6         1 423       0.264000
     70 CBZ         -3.3670    16.2930     0.9870 c          1 423       0.688667
     71 OCA         -3.3530    17.5000     0.6510 o          1 423      -0.709167
     72 OCB         -3.1910    15.8360     2.1230 o          1 423      -0.709167
     73 OBX         -4.1560    15.8040    -1.2900 os         1 423      -0.467667
     74 CBV         -4.3380    13.9990     0.2580 c6         1 423      -0.107400
     75 CBT         -5.8290    14.2840     0.4080 c6         1 423       0.166300
     76 OBU         -6.5670    13.1060     0.6210 oh         1 423      -0.662667
     77 CBS         -6.3590    14.9610    -0.8540 c6         1 423       0.049033
     78 NBR         -7.7570    15.2900    -0.6850 ns         1 423      -0.476900
     79 CBP         -8.6600    15.2870    -1.6740 c          1 423       0.604100
     80 OBO         -8.3700    15.0520    -2.8480 o          1 423      -0.644433
     81 CBQ        -10.0790    15.5890    -1.2720 c3         1 423      -0.177100
     82 CBW         -5.4940    16.2050    -1.1060 c6         1 423       0.159967
     83 CCC         -5.8950    17.0410    -2.3180 c3         1 423       0.166300
     84 OCD         -5.9410    16.2810    -3.5010 oh         1 423      -0.734667
     85 CCE         -4.9040    18.2030    -2.5370 c3         1 423       0.191633
     86 OCF         -4.6180    18.8900    -1.3490 oh         1 423      -0.689000
     87 CCG         -5.5000    19.1910    -3.5230 c3         1 423       0.144600
     88 OCH         -4.5230    20.1410    -3.8860 oh         1 423      -0.713667
     89 H1          -4.0050     1.1400    -1.1700 ho         1 423       0.477000
     90 H2          -2.8140     2.3720    -2.8550 h1         1 423       0.017867
     91 H3          -2.3670     0.6700    -2.6700 h1         1 423       0.017867
     92 H4          -1.0370     3.0460    -1.3030 h1         1 423       0.073700
     93 H5          -1.1150     0.9940    -0.1300 ho         1 423       0.497667
     94 H6          -0.0100     1.0310    -3.3300 h1         1 423       0.012033
     95 H7          -0.2810     2.6190    -4.7830 ho         1 423       0.531333
     96 H8           1.8180     1.6790    -1.9670 h1         1 423       0.063700
     97 H9           1.8030     3.3020    -4.5560 h1         1 423       0.103700
     98 H10          3.1700     0.7240    -4.1620 hn         1 423       0.308167
     99 H11          1.2480    -1.1590    -5.9970 hc         1 423       0.050922
    100 H12          2.2590    -0.3290    -7.1680 hc         1 423       0.050922
    101 H13          2.9610    -0.8910    -5.6460 hc         1 423       0.050922
    102 H14          4.1570     2.4560    -2.8470 h1         1 423       0.037700
    103 H15          4.3730     2.7510    -5.2390 ho         1 423       0.440667
    104 H16          4.3950     4.8890    -2.4130 hc         1 423       0.072533
    105 H17          2.9380     5.1990    -3.3650 hc         1 423       0.072533
    106 H19          0.7250     4.7950     0.2510 h1         1 423       0.061033
    107 H20          2.1670     5.3320     1.1090 h1         1 423       0.061033
    108 H21          0.1990     7.5850    -1.6260 h4         1 423       0.184667
    109 H22         -1.4440    10.2810     0.2070 h1         1 423       0.072867
    110 H23         -0.9340     9.8110    -1.4110 h1         1 423       0.072867
    111 H24          0.7200    11.3780     0.6250 h1         1 423       0.061033
    112 H25         -0.1150    12.0550    -0.7490 h1         1 423       0.061033
    113 H27          2.7550    11.1450     0.5110 h1         1 423       0.061033
    114 H28          3.5240    11.7310    -0.9350 h1         1 423       0.061033
    115 H29          3.0980     8.7990    -0.1910 h1         1 423       0.072867
    116 H30          4.5980     9.7110    -0.0450 h1         1 423       0.072867
    117 H31          2.9240     7.4410    -2.2720 h4         1 423       0.184667
    118 H32          4.7030     6.6630    -5.0710 h1         1 423       0.061033
    119 H33          4.3810     8.1200    -6.0060 h1         1 423       0.061033
    120 H35          0.1520     6.8140    -6.0860 hc         1 423       0.072533
    121 H36          0.9580     5.3500    -5.5210 hc         1 423       0.072533
    122 H37          0.2560     6.0310    -8.4020 h1         1 423       0.037700
    123 H38         -1.4520     5.1820    -7.1220 ho         1 423       0.440667
    124 H39          1.6420     3.5620    -7.3000 h1         1 423       0.103700
    125 H40          0.4670     4.2270    -9.9000 hn         1 423       0.308167
    126 H41          1.5850     1.7210   -11.6730 hc         1 423       0.050922
    127 H42          0.2330     1.0650   -10.7640 hc         1 423       0.050922
    128 H43          0.1300     2.6990   -11.4290 hc         1 423       0.050922
    129 H44          2.6100     5.8840    -9.0120 h1         1 423       0.063700
    130 H45          3.8040     4.0210    -9.7560 h1         1 423       0.012033
    131 H46          3.5790     2.5200    -8.1660 ho         1 423       0.531333
    132 H47          5.6110     5.3100    -7.6820 h1         1 423       0.073700
    133 H48          4.4560     6.9760    -8.8120 ho         1 423       0.497667
    134 H49          6.0960     4.3920   -10.5380 h1         1 423       0.017867
    135 H50          6.4680     3.4440    -9.0970 h1         1 423       0.017867
    136 H51          8.2870     4.6870    -9.7700 ho         1 423       0.477000
    137 H52          0.4910    11.1110    -2.9180 h1         1 423       0.061033
    138 H53          2.0940    10.5110    -3.2080 h1         1 423       0.061033
    139 H54          3.0900    12.7340    -2.8020 h1         1 423       0.072867
    140 H55          1.8520    12.7780    -4.0470 h1         1 423       0.072867
    141 H56         -0.4690    13.9270    -3.3350 h4         1 423       0.184667
    142 H57         -1.7100    16.2800    -1.8740 h1         1 423       0.061033
    143 H58         -1.0860    16.4530    -0.2320 h1         1 423       0.061033
    144 H60         -3.9450    13.5920     1.1910 hc         1 423       0.072533
    145 H61         -4.2100    13.2370    -0.5170 hc         1 423       0.072533
    146 H62         -5.9730    14.9840     1.2480 h1         1 423       0.037700
    147 H63         -6.2840    12.7170     1.4550 ho         1 423       0.440667
    148 H64         -6.2600    14.2660    -1.6940 h1         1 423       0.103700
    149 H65         -8.0720    15.5260     0.2430 hn         1 423       0.308167
    150 H66        -10.4360    16.4540    -1.8300 hc         1 423       0.050922
    151 H67        -10.7140    14.7450    -1.5420 hc         1 423       0.050922
    152 H68        -10.1990    15.7860    -0.2090 hc         1 423       0.050922
    153 H69         -5.6050    16.8460    -0.2210 h1         1 423       0.063700
    154 H70         -6.8780    17.4800    -2.0880 h1         1 423       0.012033
    155 H71         -6.7510    15.7440    -3.4610 ho         1 423       0.531333
    156 H72         -3.9930    17.7830    -2.9890 h1         1 423       0.073700
    157 H73         -4.1070    18.3170    -0.7380 ho         1 423       0.497667
    158 H74         -6.3740    19.6690    -3.0580 h1         1 423       0.017867
    159 H75         -5.8630    18.6370    -4.3960 h1         1 423       0.017867
    160 H76         -4.9020    20.7170    -4.5540 ho         1 423       0.477000
@<TRIPOS>BOND
     1     1     2 1   
     2     1    89 1   
     3     2     3 1   
     4     2    90 1   
     5     2    91 1   
     6     3     4 1   
     7     3     5 1   
     8     3    92 1   
     9     4    93 1   
    10     5     6 1   
    11     5     7 1   
    12     5    94 1   
    13     6    95 1   
    14     7     8 1   
    15     7     9 1   
    16     7    96 1   
    17     8    17 1   
    18     9    10 1   
    19     9    14 1   
    20     9    97 1   
    21    10    11 1   
    22    10    98 1   
    23    11    12 2   
    24    11    13 1   
    25    13    99 1   
    26    13   100 1   
    27    13   101 1   
    28    14    15 1   
    29    14    16 1   
    30    14   102 1   
    31    15   103 1   
    32    16    17 1   
    33    16   104 1   
    34    16   105 1   
    35    17    18 1   
    36    17    21 1   
    37    18    19 1   
    38    18    20 1   
    39    21    22 1   
    40    22    23 1   
    41    22   106 1   
    42    22   107 1   
    43    23    24 2   
    44    23    25 1   
    45    24    27 1   
    46    24   108 1   
    47    25    26 2   
    48    26    27 1   
    49    27    28 1   
    50    28    29 1   
    51    28   109 1   
    52    28   110 1   
    53    29    30 1   
    54    29   111 1   
    55    29   112 1   
    56    30    31 1   
    57    30    60 1   
    58    31    32 1   
    59    31   113 1   
    60    31   114 1   
    61    32    33 1   
    62    32   115 1   
    63    32   116 1   
    64    33    34 1   
    65    33    35 1   
    66    34    37 2   
    67    34   117 1   
    68    35    36 2   
    69    36    37 1   
    70    37    38 1   
    71    38    39 1   
    72    38   118 1   
    73    38   119 1   
    74    39    40 1   
    75    40    41 1   
    76    40    44 1   
    77    40    45 1   
    78    41    42 1   
    79    41    43 1   
    80    44    53 1   
    81    45    46 1   
    82    45   120 1   
    83    45   121 1   
    84    46    47 1   
    85    46    48 1   
    86    46   122 1   
    87    47   123 1   
    88    48    49 1   
    89    48    53 1   
    90    48   124 1   
    91    49    50 1   
    92    49   125 1   
    93    50    51 2   
    94    50    52 1   
    95    52   126 1   
    96    52   127 1   
    97    52   128 1   
    98    53    54 1   
    99    53   129 1   
   100    54    55 1   
   101    54    56 1   
   102    54   130 1   
   103    55   131 1   
   104    56    57 1   
   105    56    58 1   
   106    56   132 1   
   107    57   133 1   
   108    58    59 1   
   109    58   134 1   
   110    58   135 1   
   111    59   136 1   
   112    60    61 1   
   113    60   137 1   
   114    60   138 1   
   115    61    62 1   
   116    61   139 1   
   117    61   140 1   
   118    62    63 1   
   119    62    64 1   
   120    63    66 2   
   121    63   141 1   
   122    64    65 2   
   123    65    66 1   
   124    66    67 1   
   125    67    68 1   
   126    67   142 1   
   127    67   143 1   
   128    68    69 1   
   129    69    70 1   
   130    69    73 1   
   131    69    74 1   
   132    70    71 1   
   133    70    72 1   
   134    73    82 1   
   135    74    75 1   
   136    74   144 1   
   137    74   145 1   
   138    75    76 1   
   139    75    77 1   
   140    75   146 1   
   141    76   147 1   
   142    77    78 1   
   143    77    82 1   
   144    77   148 1   
   145    78    79 1   
   146    78   149 1   
   147    79    80 2   
   148    79    81 1   
   149    81   150 1   
   150    81   151 1   
   151    81   152 1   
   152    82    83 1   
   153    82   153 1   
   154    83    84 1   
   155    83    85 1   
   156    83   154 1   
   157    84   155 1   
   158    85    86 1   
   159    85    87 1   
   160    85   156 1   
   161    86   157 1   
   162    87    88 1   
   163    87   158 1   
   164    87   159 1   
   165    88   160 1   
@<TRIPOS>SUBSTRUCTURE
     1 423         1 TEMP              0 ****  ****    0 ROOT
