@<TRIPOS>MOLECULE
424
   60    64     1     0     0
SMALL
No Charge or Current Charge


@<TRIPOS>ATOM
      1 S1          -0.4240     2.7810     1.2430 sy         1 424       1.050500
      2 N2          -0.6800    -1.0080    -0.0060 n          1 424      -0.389800
      3 Cl2          2.8940     2.3830     0.5580 cl         1 424      -0.160000
      4 C3           1.0240    -2.0170    -1.5390 cx         1 424      -0.174700
      5 Cl3          6.1020    -2.0340     1.8170 cl         1 424      -0.200000
      6 C4          -1.0980     1.2110     0.5240 c5         1 424      -0.302700
      7 C5          -0.2370    -2.1600    -0.6900 c          1 424       0.641100
      8 C6          -1.9200    -1.0240     0.8260 c5         1 424       0.035700
      9 C7           0.4520     3.6130    -0.1080 ca         1 424      -0.252500
     10 C8           0.0350     0.2870     0.0220 c5         1 424       0.146000
     11 C9          -1.7950     0.3270     1.5940 c5         1 424      -0.058400
     12 C10         -3.2410    -1.0410    -0.0100 c          1 424       0.606100
     13 C11          1.0370    -2.7610    -2.8640 cx         1 424      -0.097400
     14 C12          0.8980    -1.2620    -2.8550 cx         1 424      -0.097400
     15 C13         -5.6810    -1.4470     0.3810 cx         1 424      -0.011900
     16 N14         -4.3060    -1.3400     0.8200 ns         1 424      -0.458900
     17 C15         -5.9370    -2.6190    -0.5270 c2         1 424       0.428200
     18 N16         -6.0210    -3.8210    -0.0750 n2         1 424      -0.712100
     19 C17          2.2880    -2.0050    -0.7170 ca         1 424      -0.044300
     20 O18         -1.5950     3.6030     1.5760 o          1 424      -0.511000
     21 O19          0.5260     2.4090     2.2980 o          1 424      -0.511000
     22 C20         -6.7460    -1.0070     1.3630 cx         1 424      -0.111400
     23 C21         -6.4320    -0.1520     0.1610 cx         1 424      -0.111400
     24 O22         -0.8390    -3.2230    -0.6000 o          1 424      -0.581100
     25 C23          1.8330     3.4330    -0.3800 ca         1 424       0.201000
     26 O24         -3.3640    -0.8520    -1.2150 o          1 424      -0.592100
     27 C25          2.6150    -3.1300     0.0670 ca         1 424      -0.097000
     28 C26          3.1520    -0.8920    -0.7170 ca         1 424      -0.097000
     29 C27          4.6380    -2.0240     0.8430 ca         1 424       0.124000
     30 C29         -0.3040     4.4630    -0.9500 ca         1 424      -0.014000
     31 C30          3.7860    -3.1390     0.8460 ca         1 424      -0.104000
     32 C31          4.3230    -0.9020     0.0610 ca         1 424      -0.104000
     33 C33          2.4260     4.1060    -1.4640 ca         1 424      -0.127000
     34 C34          0.3020     5.1290    -2.0280 ca         1 424      -0.126000
     35 C35          1.6680     4.9530    -2.2860 ca         1 424      -0.047000
     36 H4          -1.7770     1.5000    -0.2870 h1         1 424       0.119700
     37 H6          -1.9330    -1.8800     1.5150 h1         1 424       0.085700
     38 H8           0.8810     0.2370     0.7210 h1         1 424       0.068200
     39 H8A          0.4070     0.6000    -0.9630 h1         1 424       0.068200
     40 H9          -1.1700     0.2020     2.4880 hc         1 424       0.075700
     41 H9A         -2.7580     0.7330     1.9300 hc         1 424       0.075700
     42 H11          1.9820    -3.1780    -3.2040 hc         1 424       0.085450
     43 H11A         0.1620    -3.3460    -3.1410 hc         1 424       0.085450
     44 H12         -0.0730    -0.8440    -3.1120 hc         1 424       0.085450
     45 H12A         1.7450    -0.6850    -3.2170 hc         1 424       0.085450
     46 HN14        -4.0870    -1.5080     1.7960 hn         1 424       0.323500
     47 H15         -6.0520    -2.4240    -1.5890 h4         1 424      -0.039200
     48 HN16        -6.1980    -4.4620    -0.8610 hn         1 424       0.376400
     49 H20         -7.6890    -1.5480     1.3660 hc         1 424       0.080950
     50 H20A        -6.4290    -0.6450     2.3380 hc         1 424       0.080950
     51 H21         -5.9000     0.7820     0.3280 hc         1 424       0.080950
     52 H21A        -7.1660    -0.1180    -0.6420 hc         1 424       0.080950
     53 H25          1.9610    -3.9990     0.0730 ha         1 424       0.122000
     54 H26          2.9210    -0.0130    -1.3140 ha         1 424       0.122000
     55 H29         -1.3690     4.6140    -0.7770 ha         1 424       0.148000
     56 H30          4.0320    -4.0080     1.4500 ha         1 424       0.130500
     57 H31          4.9860    -0.0400     0.0600 ha         1 424       0.130500
     58 H33          3.4840     3.9660    -1.6690 ha         1 424       0.134000
     59 H34         -0.2910     5.7810    -2.6650 ha         1 424       0.127000
     60 H35          2.1380     5.4680    -3.1220 ha         1 424       0.124000
@<TRIPOS>BOND
     1     1     6 1   
     2     1     9 1   
     3     1    20 2   
     4     1    21 2   
     5     2     7 1   
     6     2     8 1   
     7     2    10 1   
     8     3    25 1   
     9     4     7 1   
    10     4    13 1   
    11     4    14 1   
    12     4    19 1   
    13     5    29 1   
    14     6    10 1   
    15     6    11 1   
    16     6    36 1   
    17     7    24 2   
    18     8    11 1   
    19     8    12 1   
    20     8    37 1   
    21     9    25 ar  
    22     9    30 ar  
    23    10    38 1   
    24    10    39 1   
    25    11    40 1   
    26    11    41 1   
    27    12    16 1   
    28    12    26 2   
    29    13    14 1   
    30    13    42 1   
    31    13    43 1   
    32    14    44 1   
    33    14    45 1   
    34    15    16 1   
    35    15    17 1   
    36    15    22 1   
    37    15    23 1   
    38    16    46 1   
    39    17    18 2   
    40    17    47 1   
    41    18    48 1   
    42    19    27 ar  
    43    19    28 ar  
    44    22    23 1   
    45    22    49 1   
    46    22    50 1   
    47    23    51 1   
    48    23    52 1   
    49    25    33 ar  
    50    27    31 ar  
    51    27    53 1   
    52    28    32 ar  
    53    28    54 1   
    54    29    31 ar  
    55    29    32 ar  
    56    30    34 ar  
    57    30    55 1   
    58    31    56 1   
    59    32    57 1   
    60    33    35 ar  
    61    33    58 1   
    62    34    35 ar  
    63    34    59 1   
    64    35    60 1   
@<TRIPOS>SUBSTRUCTURE
     1 424         1 TEMP              0 ****  ****    0 ROOT
