@<TRIPOS>MOLECULE
424
   60    64     1     0     0
SMALL
abcg2


@<TRIPOS>ATOM
      1 S1          -0.0430     2.5060     1.4400 sy         1 424       1.050500
      2 N2          -0.5930    -1.2080     0.2410 n          1 424      -0.389800
      3 CL2          2.7600     2.1190    -0.3190 cl         1 424      -0.160000
      4 C3           0.8200    -2.3810    -1.3530 cx         1 424      -0.174700
      5 CL3          6.0390    -1.3210     1.4340 cl         1 424      -0.200000
      6 C4          -0.8080     1.0730     0.6630 c5         1 424      -0.302700
      7 C5          -0.4010    -2.3380    -0.4710 c          1 424       0.641100
      8 C6          -1.8070    -1.0580     1.0090 c5         1 424       0.035700
      9 C7           0.4620     3.5610     0.0870 ca         1 424      -0.252500
     10 C8           0.1600     0.0330     0.1070 c5         1 424       0.146000
     11 C9          -1.6210     0.2970     1.6980 c5         1 424      -0.058400
     12 C10         -3.0250    -1.0130     0.0840 c          1 424       0.606100
     13 C11          0.8020    -3.4180    -2.4410 cx         1 424      -0.097400
     14 C12          0.5560    -1.9910    -2.7880 cx         1 424      -0.097400
     15 C13         -5.4320    -1.3000     0.0180 cx         1 424      -0.011900
     16 N14         -4.1820    -1.3370     0.6880 ns         1 424      -0.458900
     17 C15         -5.7670    -2.4690    -0.8230 c2         1 424       0.428200
     18 N16         -5.0060    -3.4730    -0.9160 n2         1 424      -0.712100
     19 C17          2.1230    -2.0830    -0.6870 ca         1 424      -0.044300
     20 O18         -1.1250     3.2060     2.1290 o          1 424      -0.511000
     21 O19          1.1180     2.0990     2.2180 o          1 424      -0.511000
     22 C20         -6.5800    -0.6400     0.7450 cx         1 424      -0.111400
     23 C21         -5.9630     0.0390    -0.4230 cx         1 424      -0.111400
     24 O22         -1.1980    -3.2610    -0.4000 o          1 424      -0.581100
     25 C23          1.6530     3.4060    -0.6220 ca         1 424       0.201000
     26 O24         -2.9410    -0.6170    -1.0630 o          1 424      -0.592100
     27 C25          2.4130    -2.7040     0.5280 ca         1 424      -0.097000
     28 C26          3.0720    -1.2250    -1.2300 ca         1 424      -0.097000
     29 C27          4.5380    -1.6160     0.6190 ca         1 424       0.124000
     30 C29         -0.3970     4.6080    -0.2340 ca         1 424      -0.014000
     31 C30          3.6080    -2.4730     1.1880 ca         1 424      -0.104000
     32 C31          4.2810    -0.9910    -0.5890 ca         1 424      -0.104000
     33 C33          1.9750     4.2970    -1.6340 ca         1 424      -0.127000
     34 C34         -0.0740     5.4940    -1.2470 ca         1 424      -0.126000
     35 C35          1.1150     5.3390    -1.9430 ca         1 424      -0.047000
     36 H4          -1.4500     1.4790    -0.1210 h1         1 424       0.119700
     37 H6          -1.9140    -1.8550     1.7480 h1         1 424       0.085700
     38 H8           1.0760    -0.0050     0.6980 h1         1 424       0.068200
     39 H8A          0.4260     0.2330    -0.9290 h1         1 424       0.068200
     40 H9          -1.0490     0.1540     2.6180 hc         1 424       0.075700
     41 H9A         -2.5630     0.7750     1.9560 hc         1 424       0.075700
     42 H11          1.7580    -3.8460    -2.7130 hc         1 424       0.085450
     43 H11A        -0.0270    -4.1120    -2.4640 hc         1 424       0.085450
     44 H12         -0.4540    -1.6890    -3.0330 hc         1 424       0.085450
     45 H12A         1.3190    -1.4430    -3.3250 hc         1 424       0.085450
     46 HN14        -4.1490    -1.7710     1.5980 hn         1 424       0.323500
     47 H15         -6.7260    -2.3850    -1.3430 h4         1 424      -0.039200
     48 HN16        -5.4190    -4.1650    -1.5350 hn         1 424       0.376400
     49 H20         -7.5620    -1.0820     0.6360 hc         1 424       0.080950
     50 H20A        -6.3650    -0.2570     1.7340 hc         1 424       0.080950
     51 H21         -5.3290     0.8960    -0.2430 hc         1 424       0.080950
     52 H21A        -6.5120     0.0740    -1.3550 hc         1 424       0.080950
     53 H25          1.6990    -3.3850     0.9770 ha         1 424       0.122000
     54 H26          2.8760    -0.7080    -2.1590 ha         1 424       0.122000
     55 H29         -1.3230     4.7330     0.3090 ha         1 424       0.148000
     56 H30          3.8120    -2.9600     2.1310 ha         1 424       0.130500
     57 H31          5.0070    -0.3200    -1.0300 ha         1 424       0.130500
     58 H33          2.9000     4.1760    -2.1800 ha         1 424       0.134000
     59 H34         -0.7520     6.3010    -1.4880 ha         1 424       0.127000
     60 H35          1.3790     6.0280    -2.7340 ha         1 424       0.124000
@<TRIPOS>BOND
     1     1     6 1   
     2     1     9 1   
     3     1    20 2   
     4     1    21 2   
     5     2     7 1   
     6     2     8 1   
     7     2    10 1   
     8     3    25 1   
     9     4     7 1   
    10     4    13 1   
    11     4    14 1   
    12     4    19 1   
    13     5    29 1   
    14     6    10 1   
    15     6    11 1   
    16     6    36 1   
    17     7    24 2   
    18     8    11 1   
    19     8    12 1   
    20     8    37 1   
    21     9    25 ar  
    22     9    30 ar  
    23    10    38 1   
    24    10    39 1   
    25    11    40 1   
    26    11    41 1   
    27    12    16 1   
    28    12    26 2   
    29    13    14 1   
    30    13    42 1   
    31    13    43 1   
    32    14    44 1   
    33    14    45 1   
    34    15    16 1   
    35    15    17 1   
    36    15    22 1   
    37    15    23 1   
    38    16    46 1   
    39    17    18 2   
    40    17    47 1   
    41    18    48 1   
    42    19    27 ar  
    43    19    28 ar  
    44    22    23 1   
    45    22    49 1   
    46    22    50 1   
    47    23    51 1   
    48    23    52 1   
    49    25    33 ar  
    50    27    31 ar  
    51    27    53 1   
    52    28    32 ar  
    53    28    54 1   
    54    29    31 ar  
    55    29    32 ar  
    56    30    34 ar  
    57    30    55 1   
    58    31    56 1   
    59    32    57 1   
    60    33    35 ar  
    61    33    58 1   
    62    34    35 ar  
    63    34    59 1   
    64    35    60 1   
@<TRIPOS>SUBSTRUCTURE
     1 424         1 TEMP              0 ****  ****    0 ROOT
