@<TRIPOS>MOLECULE
426
   51    54     1     0     0
SMALL
No Charge or Current Charge


@<TRIPOS>ATOM
      1 N18         -0.6440     0.9550     8.4030 n2         1 426      -0.839100
      2 C17          0.3390     0.3860     7.8390 ce         1 426       0.658800
      3 N19          1.2340    -0.2480     8.6180 nv         1 426      -1.031200
      4 C4           0.4680     0.2360     6.3560 ca         1 426      -0.181900
      5 C5          -0.6720     0.3050     5.5190 ca         1 426      -0.083000
      6 C6          -0.5460     0.2020     4.1200 ca         1 426      -0.026000
      7 C10         -1.6860     0.2550     3.3000 ca         1 426      -0.097000
      8 C11         -1.5640     0.1530     1.9040 ca         1 426      -0.093000
      9 C12         -0.2910    -0.0050     1.3000 ca         1 426      -0.153600
     10 C13          0.8490    -0.0570     2.1370 ca         1 426      -0.035000
     11 C1           0.7240     0.0450     3.5350 ca         1 426      -0.042000
     12 C2           1.8650    -0.0040     4.3550 ca         1 426      -0.091000
     13 C3           1.7400     0.0970     5.7510 ca         1 426      -0.089000
     14 C20         -0.1140    -0.1190    -0.2050 c          1 426       0.622700
     15 O23          0.9990    -0.2530    -0.7020 o          1 426      -0.580100
     16 N21         -1.2810    -0.0490    -0.9570 ns         1 426      -0.142000
     17 C22         -1.5270    -0.1450    -2.3530 ca         1 426       0.016000
     18 C28         -2.8120     0.1970    -2.8110 ca         1 426      -0.211000
     19 C27         -3.1390     0.1070    -4.1740 ca         1 426      -0.047000
     20 C26         -2.1720    -0.3250    -5.0950 ca         1 426      -0.176000
     21 C25         -0.8810    -0.6540    -4.6580 ca         1 426       0.180100
     22 O33          0.0330    -1.0970    -5.5940 os         1 426      -0.348100
     23 C34          1.2300    -0.2730    -5.5590 c5         1 426       0.167300
     24 C38          2.1950    -0.8170    -6.6350 c5         1 426      -0.094400
     25 C37          3.1680     0.3800    -6.7320 c5         1 426      -0.079400
     26 C36          2.1880     1.5760    -6.8970 c5         1 426      -0.079400
     27 C35          0.9040     1.1520    -6.1090 c5         1 426      -0.094400
     28 C24         -0.5650    -0.5890    -3.2860 ca         1 426      -0.226000
     29 H18         -1.1910     1.4300     7.6740 hn         1 426       0.389400
     30 H191         0.9170    -0.3840     9.5690 hn         1 426       0.470000
     31 H192         1.7030    -1.0370     8.1900 hn         1 426       0.470000
     32 H5          -1.6630     0.4190     5.9520 ha         1 426       0.122000
     33 H10         -2.6720     0.3760     3.7430 ha         1 426       0.120000
     34 H11         -2.4730     0.1980     1.3090 ha         1 426       0.117000
     35 H13          1.8390    -0.1770     1.7010 ha         1 426       0.137000
     36 H2           2.8530    -0.1150     3.9130 ha         1 426       0.123000
     37 H3           2.6420     0.0770     6.3600 ha         1 426       0.129000
     38 H21         -2.1170     0.0970    -0.4090 hn         1 426       0.154000
     39 H28         -3.5700     0.5330    -2.1060 ha         1 426       0.110000
     40 H27         -4.1380     0.3690    -4.5150 ha         1 426       0.114000
     41 H26         -2.4210    -0.3980    -6.1500 ha         1 426       0.129000
     42 H34          1.7010    -0.2580    -4.5670 h1         1 426       0.053700
     43 H381         1.6900    -1.0170    -7.5880 hc         1 426       0.056450
     44 H382         2.6960    -1.7380    -6.3170 hc         1 426       0.056450
     45 H371         3.8610     0.2900    -7.5770 hc         1 426       0.045450
     46 H372         3.7740     0.4800    -5.8230 hc         1 426       0.045450
     47 H361         1.9520     1.7460    -7.9540 hc         1 426       0.045450
     48 H362         2.6190     2.5090    -6.5150 hc         1 426       0.045450
     49 H351         0.0320     1.1410    -6.7750 hc         1 426       0.056450
     50 H352         0.6760     1.8490    -5.2960 hc         1 426       0.056450
     51 H24          0.4160    -0.9100    -2.9570 ha         1 426       0.152000
@<TRIPOS>BOND
     1     1     2 2   
     2     1    29 1   
     3     2     3 1   
     4     2     4 1   
     5     3    30 1   
     6     3    31 1   
     7     4     5 ar  
     8     4    13 ar  
     9     5     6 ar  
    10     5    32 1   
    11     6     7 ar  
    12     6    11 ar  
    13     7     8 ar  
    14     7    33 1   
    15     8     9 ar  
    16     8    34 1   
    17     9    10 ar  
    18     9    14 1   
    19    10    11 ar  
    20    10    35 1   
    21    11    12 ar  
    22    12    13 ar  
    23    12    36 1   
    24    13    37 1   
    25    14    15 2   
    26    14    16 1   
    27    16    17 1   
    28    16    38 1   
    29    17    18 ar  
    30    17    28 ar  
    31    18    19 ar  
    32    18    39 1   
    33    19    20 ar  
    34    19    40 1   
    35    20    21 ar  
    36    20    41 1   
    37    21    22 1   
    38    21    28 ar  
    39    22    23 1   
    40    23    24 1   
    41    23    27 1   
    42    23    42 1   
    43    24    25 1   
    44    24    43 1   
    45    24    44 1   
    46    25    26 1   
    47    25    45 1   
    48    25    46 1   
    49    26    27 1   
    50    26    47 1   
    51    26    48 1   
    52    27    49 1   
    53    27    50 1   
    54    28    51 1   
@<TRIPOS>SUBSTRUCTURE
     1 426         1 TEMP              0 ****  ****    0 ROOT
