@<TRIPOS>MOLECULE
426
   51    54     1     0     0
SMALL
abcg2


@<TRIPOS>ATOM
      1 N18         -0.0370     1.6660     8.0610 n2         1 426      -0.839100
      2 C17          0.4590     0.6190     7.5230 ce         1 426       0.658800
      3 N19          1.0320    -0.3530     8.2870 nv         1 426      -1.031200
      4 C4           0.5130     0.3740     6.0540 ca         1 426      -0.181900
      5 C5          -0.5310     0.7740     5.2580 ca         1 426      -0.083000
      6 C6          -0.4990     0.5730     3.8620 ca         1 426      -0.026000
      7 C10         -1.5690     0.9650     3.0250 ca         1 426      -0.097000
      8 C11         -1.5140     0.7560     1.6770 ca         1 426      -0.093000
      9 C12         -0.3770     0.1530     1.0870 ca         1 426      -0.153600
     10 C13          0.6810    -0.2180     1.8780 ca         1 426      -0.035000
     11 C1           0.6400    -0.0350     3.2760 ca         1 426      -0.042000
     12 C2           1.7060    -0.4380     4.1140 ca         1 426      -0.091000
     13 C3           1.6410    -0.2490     5.4650 ca         1 426      -0.089000
     14 C20         -0.2620    -0.0680    -0.3870 c          1 426       0.622700
     15 O23          0.8210    -0.0480    -0.9460 o          1 426      -0.580100
     16 N21         -1.4420    -0.3020    -1.0140 ns         1 426      -0.142000
     17 C22         -1.7010    -0.5160    -2.3720 ca         1 426       0.016000
     18 C28         -3.0080    -0.8680    -2.7080 ca         1 426      -0.211000
     19 C27         -3.3390    -1.0750    -4.0370 ca         1 426      -0.047000
     20 C26         -2.3950    -0.9370    -5.0380 ca         1 426      -0.176000
     21 C25         -1.0880    -0.5840    -4.7010 ca         1 426       0.180100
     22 O33         -0.2280    -0.4790    -5.7310 os         1 426      -0.348100
     23 C34          1.1270    -0.1160    -5.5170 c5         1 426       0.167300
     24 C38          1.9240    -0.4150    -6.7880 c5         1 426      -0.094400
     25 C37          3.1080     0.5730    -6.7690 c5         1 426      -0.079400
     26 C36          2.8600     1.5050    -5.5650 c5         1 426      -0.079400
     27 C35          1.3680     1.3720    -5.2750 c5         1 426      -0.094400
     28 C24         -0.7350    -0.3730    -3.3700 ca         1 426      -0.226000
     29 H18         -0.3210     2.3310     7.3510 hn         1 426       0.389400
     30 H191         0.8950    -0.2750     9.2820 hn         1 426       0.470000
     31 H192         1.0250    -1.2990     7.9420 hn         1 426       0.470000
     32 H5          -1.4090     1.2340     5.6960 ha         1 426       0.122000
     33 H10         -2.4370     1.4400     3.4650 ha         1 426       0.120000
     34 H11         -2.3410     1.0920     1.0630 ha         1 426       0.117000
     35 H13          1.5600    -0.6720     1.4370 ha         1 426       0.137000
     36 H2           2.5800    -0.8980     3.6710 ha         1 426       0.123000
     37 H3           2.4690    -0.5590     6.0880 ha         1 426       0.129000
     38 H21         -2.2490    -0.4170    -0.4210 hn         1 426       0.154000
     39 H28         -3.7600    -0.9730    -1.9350 ha         1 426       0.110000
     40 H27         -4.3540    -1.3470    -4.2950 ha         1 426       0.114000
     41 H26         -2.6580    -1.1020    -6.0750 ha         1 426       0.129000
     42 H34          1.5420    -0.6980    -4.6850 h1         1 426       0.053700
     43 H381         1.2860    -0.2350    -7.6560 hc         1 426       0.056450
     44 H382         2.2410    -1.4570    -6.8320 hc         1 426       0.056450
     45 H371         3.1380     1.1450    -7.6970 hc         1 426       0.045450
     46 H372         4.0660     0.0620    -6.6840 hc         1 426       0.045450
     47 H361         3.1590     2.5350    -5.7600 hc         1 426       0.045450
     48 H362         3.4320     1.1640    -4.6990 hc         1 426       0.045450
     49 H351         0.7810     1.9510    -5.9950 hc         1 426       0.056450
     50 H352         1.0960     1.7120    -4.2740 hc         1 426       0.056450
     51 H24          0.2700    -0.1000    -3.1010 ha         1 426       0.152000
@<TRIPOS>BOND
     1     1     2 2   
     2     1    29 1   
     3     2     3 1   
     4     2     4 1   
     5     3    30 1   
     6     3    31 1   
     7     4     5 ar  
     8     4    13 ar  
     9     5     6 ar  
    10     5    32 1   
    11     6     7 ar  
    12     6    11 ar  
    13     7     8 ar  
    14     7    33 1   
    15     8     9 ar  
    16     8    34 1   
    17     9    10 ar  
    18     9    14 1   
    19    10    11 ar  
    20    10    35 1   
    21    11    12 ar  
    22    12    13 ar  
    23    12    36 1   
    24    13    37 1   
    25    14    15 2   
    26    14    16 1   
    27    16    17 1   
    28    16    38 1   
    29    17    18 ar  
    30    17    28 ar  
    31    18    19 ar  
    32    18    39 1   
    33    19    20 ar  
    34    19    40 1   
    35    20    21 ar  
    36    20    41 1   
    37    21    22 1   
    38    21    28 ar  
    39    22    23 1   
    40    23    24 1   
    41    23    27 1   
    42    23    42 1   
    43    24    25 1   
    44    24    43 1   
    45    24    44 1   
    46    25    26 1   
    47    25    45 1   
    48    25    46 1   
    49    26    27 1   
    50    26    47 1   
    51    26    48 1   
    52    27    49 1   
    53    27    50 1   
    54    28    51 1   
@<TRIPOS>SUBSTRUCTURE
     1 426         1 TEMP              0 ****  ****    0 ROOT
