@<TRIPOS>MOLECULE
428
   24    25     1     0     0
SMALL
No Charge or Current Charge


@<TRIPOS>ATOM
      1 CAA          0.4280    -0.9460    -0.1240 cc         1 428      -0.151000
      2 NAB          0.5210     0.4150    -0.0410 na         1 428       0.265900
      3 NAC         -0.8420    -1.3020    -0.1820 nd         1 428      -0.262600
      4 CAD          1.6070    -1.7360    -0.1380 cc         1 428       0.006000
      5 CAE         -0.7150     0.9800    -0.0420 cc         1 428      -0.222100
      6 NAF          1.6810     1.1540     0.0360 nc         1 428      -0.591800
      7 CAG         -1.5590    -0.1110    -0.1290 cd         1 428       0.047400
      8 CAH          2.8000    -1.0610    -0.0650 cd         1 428      -0.178000
      9 CAI          2.7590     0.3760     0.0200 cd         1 428       0.563300
     10 CAJ         -3.0730    -0.1090    -0.1740 c3         1 428       0.014500
     11 OAK          3.9000     1.0550     0.0920 oh         1 428      -0.632300
     12 CAL         -3.6670    -0.3110     1.2370 c3         1 428      -0.086600
     13 CAM         -3.6400     1.1600    -0.8500 c3         1 428      -0.086600
     14 HAD          1.5510    -2.8190    -0.2040 ha         1 428       0.150000
     15 HAE         -0.8870     2.0450     0.0160 h4         1 428       0.242000
     16 HOAK         3.5770     1.9780     0.1380 ho         1 428       0.489000
     17 HAH          3.7460    -1.5870    -0.0690 ha         1 428       0.149000
     18 HAJ         -3.3960    -0.9620    -0.7840 hc         1 428       0.064700
     19 H1AL        -3.3810     0.5140     1.9010 hc         1 428       0.036367
     20 H2AL        -4.7620    -0.3570     1.1950 hc         1 428       0.036367
     21 H3AL        -3.3040    -1.2470     1.6780 hc         1 428       0.036367
     22 H1AM        -4.7300     1.0920    -0.9470 hc         1 428       0.036367
     23 H2AM        -3.4050     2.0570    -0.2640 hc         1 428       0.036367
     24 H3AM        -3.2170     1.2830    -1.8540 hc         1 428       0.036367
@<TRIPOS>BOND
     1     1     2 1   
     2     1     3 2   
     3     1     4 1   
     4     2     5 1   
     5     2     6 1   
     6     3     7 1   
     7     4     8 2   
     8     4    14 1   
     9     5     7 2   
    10     5    15 1   
    11     6     9 2   
    12     7    10 1   
    13     8     9 1   
    14     8    17 1   
    15     9    11 1   
    16    10    12 1   
    17    10    13 1   
    18    10    18 1   
    19    11    16 1   
    20    12    19 1   
    21    12    20 1   
    22    12    21 1   
    23    13    22 1   
    24    13    23 1   
    25    13    24 1   
@<TRIPOS>SUBSTRUCTURE
     1 428         1 TEMP              0 ****  ****    0 ROOT
