@<TRIPOS>MOLECULE
428
   24    25     1     0     0
SMALL
abcg2


@<TRIPOS>ATOM
      1 CAA          0.3790    -0.9170    -0.0230 cc         1 428      -0.151000
      2 NAB          0.5230     0.4430    -0.1500 na         1 428       0.265900
      3 NAC         -0.8960    -1.2570    -0.0490 nd         1 428      -0.262600
      4 CAD          1.5590    -1.6780     0.1020 cc         1 428       0.006000
      5 CAE         -0.7220     0.9760    -0.2610 cc         1 428      -0.222100
      6 NAF          1.6770     1.1160    -0.1650 nc         1 428      -0.591800
      7 CAG         -1.5840    -0.0990    -0.1950 cd         1 428       0.047400
      8 CAH          2.7500    -1.0280     0.0930 cd         1 428      -0.178000
      9 CAI          2.7460     0.3920    -0.0470 cd         1 428       0.563300
     10 CAJ         -3.0810    -0.0800    -0.2370 c3         1 428       0.014500
     11 OAK          3.9280     1.0010    -0.0540 oh         1 428      -0.632300
     12 CAL         -3.6560    -0.5080     1.1150 c3         1 428      -0.086600
     13 CAM         -3.6230     1.2810    -0.6580 c3         1 428      -0.086600
     14 HAD          1.4940    -2.7520     0.2040 ha         1 428       0.150000
     15 HAE         -0.8800     2.0350    -0.3740 h4         1 428       0.242000
     16 HOAK         3.8070     1.9560    -0.1470 ho         1 428       0.489000
     17 HAH          3.6890    -1.5540     0.1890 ha         1 428       0.149000
     18 HAJ         -3.3930    -0.8190    -0.9830 hc         1 428       0.064700
     19 H1AL        -3.3970     0.2140     1.8910 hc         1 428       0.036367
     20 H2AL        -4.7440    -0.5740     1.0670 hc         1 428       0.036367
     21 H3AL        -3.2730    -1.4820     1.4170 hc         1 428       0.036367
     22 H1AM        -4.7100     1.2510    -0.7330 hc         1 428       0.036367
     23 H2AM        -3.3680     2.0540     0.0700 hc         1 428       0.036367
     24 H3AM        -3.2320     1.5890    -1.6290 hc         1 428       0.036367
@<TRIPOS>BOND
     1     1     2 1   
     2     1     3 2   
     3     1     4 1   
     4     2     5 1   
     5     2     6 1   
     6     3     7 1   
     7     4     8 2   
     8     4    14 1   
     9     5     7 2   
    10     5    15 1   
    11     6     9 2   
    12     7    10 1   
    13     8     9 1   
    14     8    17 1   
    15     9    11 1   
    16    10    12 1   
    17    10    13 1   
    18    10    18 1   
    19    11    16 1   
    20    12    19 1   
    21    12    20 1   
    22    12    21 1   
    23    13    22 1   
    24    13    23 1   
    25    13    24 1   
@<TRIPOS>SUBSTRUCTURE
     1 428         1 TEMP              0 ****  ****    0 ROOT
