@<TRIPOS>MOLECULE
429
   66    67     1     0     0
SMALL
No Charge or Current Charge


@<TRIPOS>ATOM
      1 C1           6.2640    -1.4420     0.5510 ca         1 429       0.088100
      2 C2           7.2670    -0.4520     0.6930 ca         1 429       0.155100
      3 C3           6.8850     0.8870     0.9360 ca         1 429      -0.199000
      4 C4           5.5250     1.2280     1.0360 ca         1 429      -0.092000
      5 C5           4.5300     0.2430     0.8920 ca         1 429      -0.128300
      6 C6           4.9060    -1.0910     0.6510 ca         1 429      -0.189000
      7 O5           8.5980    -0.8250     0.5880 os         1 429      -0.270100
      8 C9           2.3170     0.5390    -0.3810 c3         1 429       0.048700
      9 N1           3.0630     1.2080    -1.4770 ns         1 429      -0.481900
     10 C10          3.4290     2.5370    -1.5050 c          1 429       0.612100
     11 C11          0.8210     0.9990    -0.3280 c          1 429       0.600100
     12 N2           0.0930     0.5360     0.7520 ns         1 429      -0.506900
     13 C12         -1.3260     0.8150     0.9870 c3         1 429       0.107000
     14 C13         -2.2420    -0.0830     0.1310 c3         1 429      -0.102400
     15 C14         -4.6610    -0.7160    -0.4740 c3         1 429       0.166600
     16 C15         -3.7440     0.1790     0.3810 c3         1 429      -0.080400
     17 O1          -6.0190    -0.3800    -0.1480 os         1 429      -0.326100
     18 O4           3.1250     3.3350    -0.6310 o          1 429      -0.619100
     19 C23          4.2490     2.9400    -2.7250 c3         1 429      -0.175100
     20 C8           9.6830     0.1250     0.7190 c3         1 429      -0.003400
     21 O8           0.3040     1.7120    -1.1810 o          1 429      -0.602100
     22 C7           3.0530     0.6170     0.9890 c3         1 429      -0.031100
     23 C24         11.0890    -0.5260     0.5640 c          1 429       0.729000
     24 O6          12.0640     0.2080     0.6610 o          1 429      -0.709500
     25 O7          11.1800    -1.7300     0.3550 o          1 429      -0.709500
     26 C32         -7.1050    -1.0030    -0.7290 ca         1 429       0.247100
     27 C33         -6.9300    -1.9980    -1.7170 ca         1 429      -0.267000
     28 C34         -8.0390    -2.6020    -2.3240 ca         1 429      -0.003000
     29 C35         -9.3280    -2.2060    -1.9530 ca         1 429      -0.215000
     30 C36         -9.5140    -1.2180    -0.9790 ca         1 429       0.237100
     31 C37         -8.4070    -0.6110    -0.3440 ca         1 429      -0.286600
     32 C38         -8.5890     0.4230     0.7360 c          1 429       0.623700
     33 O11         -7.8750     0.4970     1.7260 o          1 429      -0.453000
     34 O12         -9.7390     1.1620     0.5870 os         1 429      -0.492100
     35 C39        -10.0390     2.1590     1.5840 c3         1 429       0.159900
     36 O13        -10.7900    -0.8690    -0.6640 oh         1 429      -0.538100
     37 O2           6.5920    -2.7510     0.3160 oh         1 429      -0.494100
     38 H3           7.6260     1.6730     1.0500 ha         1 429       0.128000
     39 H4           5.2450     2.2630     1.2200 ha         1 429       0.109000
     40 H6           4.1380    -1.8540     0.5410 ha         1 429       0.091000
     41 H9           2.2730    -0.5250    -0.6460 h1         1 429       0.061700
     42 HN1          3.3680     0.6450    -2.2620 hn         1 429       0.325500
     43 HN2          0.5800    -0.0570     1.4130 hn         1 429       0.317500
     44 H121        -1.5270     1.8710     0.7650 h1         1 429       0.053700
     45 H122        -1.5410     0.6480     2.0510 h1         1 429       0.053700
     46 H131        -2.0170    -1.1350     0.3480 hc         1 429       0.048200
     47 H132        -2.0200     0.0800    -0.9310 hc         1 429       0.048200
     48 H141        -4.4580    -1.7710    -0.2480 h1         1 429       0.038200
     49 H142        -4.4610    -0.5360    -1.5380 h1         1 429       0.038200
     50 H151        -3.9690     1.2300     0.1640 hc         1 429       0.060200
     51 H152        -3.9700     0.0110     1.4410 hc         1 429       0.060200
     52 H231         3.7010     2.6630    -3.6320 hc         1 429       0.059367
     53 H232         4.5170     4.0020    -2.7210 hc         1 429       0.059367
     54 H233         5.1370     2.2990    -2.7830 hc         1 429       0.059367
     55 H81          9.5940     0.9070    -0.0470 h1         1 429       0.016200
     56 H82          9.6470     0.6060     1.7050 h1         1 429       0.016200
     57 H71          2.9400     1.6250     1.4050 hc         1 429       0.051200
     58 H72          2.5640    -0.0560     1.7040 hc         1 429       0.051200
     59 H33         -5.9410    -2.3160    -2.0310 ha         1 429       0.126000
     60 H34         -7.8990    -3.3690    -3.0830 ha         1 429       0.114000
     61 H35        -10.1910    -2.6670    -2.4260 ha         1 429       0.132000
     62 H391       -10.9730     2.6790     1.3370 h1         1 429       0.048700
     63 H392       -10.1580     1.7000     2.5750 h1         1 429       0.048700
     64 H393        -9.2390     2.9090     1.6420 h1         1 429       0.048700
     65 H13        -10.7210    -0.0330    -0.1420 ho         1 429       0.496000
     66 HO2          5.7630    -3.2710     0.2530 ho         1 429       0.438000
@<TRIPOS>BOND
     1     1     2 ar  
     2     1     6 ar  
     3     1    37 1   
     4     2     3 ar  
     5     2     7 1   
     6     3     4 ar  
     7     3    38 1   
     8     4     5 ar  
     9     4    39 1   
    10     5     6 ar  
    11     5    22 1   
    12     6    40 1   
    13     7    20 1   
    14     8     9 1   
    15     8    11 1   
    16     8    22 1   
    17     8    41 1   
    18     9    10 1   
    19     9    42 1   
    20    10    18 2   
    21    10    19 1   
    22    11    12 1   
    23    11    21 2   
    24    12    13 1   
    25    12    43 1   
    26    13    14 1   
    27    13    44 1   
    28    13    45 1   
    29    14    16 1   
    30    14    46 1   
    31    14    47 1   
    32    15    16 1   
    33    15    17 1   
    34    15    48 1   
    35    15    49 1   
    36    16    50 1   
    37    16    51 1   
    38    17    26 1   
    39    19    52 1   
    40    19    53 1   
    41    19    54 1   
    42    20    23 1   
    43    20    55 1   
    44    20    56 1   
    45    22    57 1   
    46    22    58 1   
    47    23    24 1   
    48    23    25 1   
    49    26    27 ar  
    50    26    31 ar  
    51    27    28 ar  
    52    27    59 1   
    53    28    29 ar  
    54    28    60 1   
    55    29    30 ar  
    56    29    61 1   
    57    30    31 ar  
    58    30    36 1   
    59    31    32 1   
    60    32    33 2   
    61    32    34 1   
    62    34    35 1   
    63    35    62 1   
    64    35    63 1   
    65    35    64 1   
    66    36    65 1   
    67    37    66 1   
@<TRIPOS>SUBSTRUCTURE
     1 429         1 TEMP              0 ****  ****    0 ROOT
