@<TRIPOS>MOLECULE
429
   66    67     1     0     0
SMALL
bcc


@<TRIPOS>ATOM
      1 C1           6.1410    -1.5910     0.4760 ca         1 429       0.088100
      2 C2           7.1270    -0.5930     0.5930 ca         1 429       0.155100
      3 C3           6.7240     0.7120     0.8360 ca         1 429      -0.217000
      4 C4           5.3730     1.0310     0.9580 ca         1 429      -0.110000
      5 C5           4.3990     0.0570     0.8400 ca         1 429      -0.128300
      6 C6           4.8040    -1.2580     0.6000 ca         1 429      -0.207000
      7 O5           8.3990    -1.0090     0.4590 os         1 429      -0.246900
      8 C9           2.2920     0.5290    -0.4630 c3         1 429       0.048700
      9 N1           3.0640     1.3430    -1.3630 ns         1 429      -0.548900
     10 C10          3.2140     2.6660    -1.1930 c          1 429       0.679100
     11 C11          0.8280     0.9980    -0.4710 c          1 429       0.667100
     12 N2           0.1230     0.7610     0.6450 ns         1 429      -0.573900
     13 C12         -1.2880     1.0550     0.7640 c3         1 429       0.107000
     14 C13         -2.1870    -0.0110     0.1470 c3         1 429      -0.102400
     15 C14         -4.5540    -0.7070    -0.3000 c3         1 429       0.143400
     16 C15         -3.6590     0.3020     0.3860 c3         1 429      -0.080400
     17 O1          -5.9020    -0.3540    -0.0200 os         1 429      -0.302900
     18 O4           2.6650     3.2740    -0.2830 o          1 429      -0.619100
     19 C23          4.1300     3.3490    -2.1760 c3         1 429      -0.175100
     20 C8           9.4250    -0.0390     0.5200 c3         1 429      -0.026600
     21 O8           0.3380     1.5060    -1.4670 o          1 429      -0.602100
     22 C7           2.9390     0.3970     0.9300 c3         1 429      -0.031100
     23 C24         10.8050    -0.6840     0.3140 c          1 429       0.939600
     24 O6          11.7430     0.1370     0.3270 o          1 429      -0.814800
     25 O7          10.8670    -1.9130     0.1630 o          1 429      -0.814800
     26 C32         -6.8970    -1.0420    -0.5840 ca         1 429       0.247100
     27 C33         -6.6820    -2.1360    -1.4130 ca         1 429      -0.285000
     28 C34         -7.7700    -2.7790    -1.9900 ca         1 429      -0.021000
     29 C35         -9.0600    -2.3460    -1.7770 ca         1 429      -0.233000
     30 C36         -9.2920    -1.2400    -0.9590 ca         1 429       0.237100
     31 C37         -8.2140    -0.5850    -0.3250 ca         1 429      -0.286600
     32 C38         -8.4260     0.5190     0.6370 c          1 429       0.672700
     33 O11         -7.7020     0.8170     1.5490 o          1 429      -0.502000
     34 O12         -9.5710     1.1790     0.3970 os         1 429      -0.468900
     35 C39         -9.9490     2.2130     1.3120 c3         1 429       0.136700
     36 O13        -10.5720    -0.8880    -0.8050 oh         1 429      -0.499100
     37 O2           6.5720    -2.8490     0.2460 oh         1 429      -0.455100
     38 H3           7.4540     1.5040     0.9340 ha         1 429       0.146000
     39 H4           5.0900     2.0590     1.1500 ha         1 429       0.127000
     40 H6           4.0570    -2.0420     0.5130 ha         1 429       0.109000
     41 H9           2.2720    -0.4700    -0.9100 h1         1 429       0.061700
     42 HN1          3.5510     0.8850    -2.1140 hn         1 429       0.325500
     43 HN2          0.5620     0.3010     1.4230 hn         1 429       0.317500
     44 H121        -1.4930     2.0250     0.3080 h1         1 429       0.053700
     45 H122        -1.5080     1.1530     1.8280 h1         1 429       0.053700
     46 H131        -1.9370    -0.9860     0.5760 hc         1 429       0.048200
     47 H132        -1.9860    -0.0760    -0.9260 hc         1 429       0.048200
     48 H141        -4.3430    -1.7190     0.0640 h1         1 429       0.038200
     49 H142        -4.3760    -0.6980    -1.3810 h1         1 429       0.038200
     50 H151        -3.8900     1.3020     0.0100 hc         1 429       0.060200
     51 H152        -3.8650     0.3070     1.4600 hc         1 429       0.060200
     52 H231         4.3510     2.7450    -3.0550 hc         1 429       0.059367
     53 H232         3.6880     4.2900    -2.4980 hc         1 429       0.059367
     54 H233         5.0740     3.5820    -1.6810 hc         1 429       0.059367
     55 H81          9.2730     0.7330    -0.2440 h1         1 429       0.016200
     56 H82          9.4170     0.4730     1.4910 h1         1 429       0.016200
     57 H71          2.8100     1.3200     1.4950 hc         1 429       0.051200
     58 H72          2.4280    -0.3960     1.4830 hc         1 429       0.051200
     59 H33         -5.6860    -2.4980    -1.6200 ha         1 429       0.144000
     60 H34         -7.5960    -3.6360    -2.6270 ha         1 429       0.132000
     61 H35         -9.9000    -2.8470    -2.2400 ha         1 429       0.150000
     62 H391       -10.8950     2.5990     0.9440 h1         1 429       0.048700
     63 H392       -10.0820     1.8210     2.3190 h1         1 429       0.048700
     64 H393        -9.2100     3.0120     1.3250 h1         1 429       0.048700
     65 H13        -10.6280    -0.0490    -0.3200 ho         1 429       0.457000
     66 HO2          5.8180    -3.4460     0.1850 ho         1 429       0.399000
@<TRIPOS>BOND
     1     1     2 ar  
     2     1     6 ar  
     3     1    37 1   
     4     2     3 ar  
     5     2     7 1   
     6     3     4 ar  
     7     3    38 1   
     8     4     5 ar  
     9     4    39 1   
    10     5     6 ar  
    11     5    22 1   
    12     6    40 1   
    13     7    20 1   
    14     8     9 1   
    15     8    11 1   
    16     8    22 1   
    17     8    41 1   
    18     9    10 1   
    19     9    42 1   
    20    10    18 2   
    21    10    19 1   
    22    11    12 1   
    23    11    21 2   
    24    12    13 1   
    25    12    43 1   
    26    13    14 1   
    27    13    44 1   
    28    13    45 1   
    29    14    16 1   
    30    14    46 1   
    31    14    47 1   
    32    15    16 1   
    33    15    17 1   
    34    15    48 1   
    35    15    49 1   
    36    16    50 1   
    37    16    51 1   
    38    17    26 1   
    39    19    52 1   
    40    19    53 1   
    41    19    54 1   
    42    20    23 1   
    43    20    55 1   
    44    20    56 1   
    45    22    57 1   
    46    22    58 1   
    47    23    24 1   
    48    23    25 1   
    49    26    27 ar  
    50    26    31 ar  
    51    27    28 ar  
    52    27    59 1   
    53    28    29 ar  
    54    28    60 1   
    55    29    30 ar  
    56    29    61 1   
    57    30    31 ar  
    58    30    36 1   
    59    31    32 1   
    60    32    33 2   
    61    32    34 1   
    62    34    35 1   
    63    35    62 1   
    64    35    63 1   
    65    35    64 1   
    66    36    65 1   
    67    37    66 1   
@<TRIPOS>SUBSTRUCTURE
     1 429         1 TEMP              0 ****  ****    0 ROOT
