@<TRIPOS>MOLECULE
42A
   16    17     1     0     0
SMALL
abcg2


@<TRIPOS>ATOM
      1 NAA         -3.5180     1.1790     0.0470 n1         1 42A      -0.467000
      2 CAB         -2.5460     0.5560     0.0350 cg         1 42A       0.321700
      3 CAI         -1.3470    -0.1810     0.0230 cc         1 42A      -0.058900
      4 CAJ         -0.0120     0.3410     0.0050 ca         1 42A      -0.104800
      5 CAE          0.5790     1.6000    -0.0100 ca         1 42A      -0.024000
      6 CAC          1.9610     1.6450    -0.0290 ca         1 42A      -0.184000
      7 CAD          2.7010     0.4570    -0.0320 ca         1 42A       0.357900
      8 NAG          2.1630    -0.7540    -0.0180 nb         1 42A      -0.674000
      9 CAK          0.8430    -0.7770    -0.0000 ca         1 42A       0.361500
     10 NAH          0.0630    -1.9010     0.0150 na         1 42A      -0.311400
     11 CAF         -1.2390    -1.5540     0.0290 cd         1 42A      -0.093100
     12 H1          -0.0130     2.5060    -0.0070 ha         1 42A       0.131000
     13 H2           2.4820     2.5920    -0.0420 ha         1 42A       0.126000
     14 H3           3.7840     0.5020    -0.0460 h4         1 42A       0.023100
     15 H4           0.4060    -2.8500     0.0140 hn         1 42A       0.368000
     16 H5          -2.0190    -2.2970     0.0410 h4         1 42A       0.228000
@<TRIPOS>BOND
     1     1     2 3   
     2     2     3 1   
     3     3     4 1   
     4     3    11 2   
     5     4     5 ar  
     6     4     9 ar  
     7     5     6 ar  
     8     5    12 1   
     9     6     7 ar  
    10     6    13 1   
    11     7     8 ar  
    12     7    14 1   
    13     8     9 ar  
    14     9    10 1   
    15    10    11 1   
    16    10    15 1   
    17    11    16 1   
@<TRIPOS>SUBSTRUCTURE
     1 42A         1 TEMP              0 ****  ****    0 ROOT
