@<TRIPOS>MOLECULE
42A
   16    17     1     0     0
SMALL
No Charge or Current Charge


@<TRIPOS>ATOM
      1 NAA         -3.4690     1.2890     0.0440 n1         1 42A      -0.467000
      2 CAB         -2.5140     0.6160     0.0350 cg         1 42A       0.321700
      3 CAI         -1.3320    -0.1780     0.0240 cc         1 42A      -0.058900
      4 CAJ          0.0320     0.2660     0.0040 ca         1 42A      -0.104800
      5 CAE          0.5510     1.5680    -0.0100 ca         1 42A      -0.024000
      6 CAC          1.9530     1.6760    -0.0280 ca         1 42A      -0.184000
      7 CAD          2.7340     0.5010    -0.0330 ca         1 42A       0.357900
      8 NAG          2.1990    -0.7470    -0.0190 nb         1 42A      -0.674000
      9 CAK          0.8550    -0.8380    -0.0020 ca         1 42A       0.361500
     10 NAH          0.0750    -1.9760     0.0140 na         1 42A      -0.311400
     11 CAF         -1.2820    -1.5650     0.0300 cd         1 42A      -0.093100
     12 H1          -0.0920     2.4460    -0.0060 ha         1 42A       0.131000
     13 H2           2.4350     2.6500    -0.0400 ha         1 42A       0.126000
     14 H3           3.8220     0.5610    -0.0470 h4         1 42A       0.023100
     15 H4           0.4260    -2.9260     0.0150 hn         1 42A       0.368000
     16 H5          -2.1040    -2.2780     0.0440 h4         1 42A       0.228000
@<TRIPOS>BOND
     1     1     2 3   
     2     2     3 1   
     3     3     4 1   
     4     3    11 2   
     5     4     5 ar  
     6     4     9 ar  
     7     5     6 ar  
     8     5    12 1   
     9     6     7 ar  
    10     6    13 1   
    11     7     8 ar  
    12     7    14 1   
    13     8     9 ar  
    14     9    10 1   
    15    10    11 1   
    16    10    15 1   
    17    11    16 1   
@<TRIPOS>SUBSTRUCTURE
     1 42A         1 TEMP              0 ****  ****    0 ROOT
