@<TRIPOS>MOLECULE
42B
   16    15     1     0     0
SMALL
No Charge or Current Charge


@<TRIPOS>ATOM
      1 N1          -1.6730     2.0960    -0.7870 n8         1 42B      -1.013200
      2 C3          -0.7530    -0.7910     2.5720 c          1 42B       0.724000
      3 O3          -1.7960    -0.4660     3.1300 o          1 42B      -0.724000
      4 C4           0.2610     0.3300     2.1080 c3         1 42B       0.021300
      5 O4           0.3980     1.4350     3.0420 oh         1 42B      -0.634000
      6 C5          -0.0720     0.8790     0.6950 c3         1 42B      -0.086400
      7 C6          -1.4460     1.5800     0.5790 c3         1 42B       0.144800
      8 H1N1        -2.6210     2.4880    -0.8440 hn         1 42B       0.374000
      9 H1N2        -1.6960     1.3050    -1.4420 hn         1 42B       0.374000
     10 H4           1.2390    -0.1630     2.0270 h1         1 42B       0.009700
     11 HA           1.0820     2.0380     2.6800 ho         1 42B       0.388000
     12 H5C1         0.7170     1.5780     0.3920 hc         1 42B       0.026200
     13 H5C2        -0.0380     0.0440    -0.0160 hc         1 42B       0.026200
     14 H6C1        -1.4980     2.4190     1.2880 h1         1 42B       0.046200
     15 H6C2        -2.2490     0.8700     0.8240 h1         1 42B       0.046200
     16 O31         -0.4120    -1.9600     2.4420 o          1 42B      -0.724000
@<TRIPOS>BOND
     1     1     7 1   
     2     1     8 1   
     3     1     9 1   
     4     2     3 1   
     5     2     4 1   
     6     2    16 1   
     7     4     5 1   
     8     4     6 1   
     9     4    10 1   
    10     5    11 1   
    11     6     7 1   
    12     6    12 1   
    13     6    13 1   
    14     7    14 1   
    15     7    15 1   
@<TRIPOS>SUBSTRUCTURE
     1 42B         1 TEMP              0 ****  ****    0 ROOT
