@<TRIPOS>MOLECULE
42B
   16    15     1     0     0
SMALL
abcg2


@<TRIPOS>ATOM
      1 N1          -1.6140     2.0420    -0.7760 n8         1 42B      -1.013200
      2 C3          -0.7550    -0.6890     2.5910 c          1 42B       0.724000
      3 O3          -1.4440    -0.4320     3.5930 o          1 42B      -0.724000
      4 C4           0.2600     0.3690     2.1150 c3         1 42B       0.021300
      5 O4           0.3060     1.4380     3.0380 oh         1 42B      -0.634000
      6 C5          -0.0690     0.8520     0.7020 c3         1 42B      -0.086400
      7 C6          -1.4420     1.4930     0.5630 c3         1 42B       0.144800
      8 H1N1        -2.5350     2.4550    -0.8540 hn         1 42B       0.374000
      9 H1N2        -1.6010     1.2840    -1.4490 hn         1 42B       0.374000
     10 H4           1.2420    -0.1280     2.0630 h1         1 42B       0.009700
     11 HA           0.9310     2.0840     2.6950 ho         1 42B       0.388000
     12 H5C1         0.6910     1.5730     0.3770 hc         1 42B       0.026200
     13 H5C2         0.0080     0.0010     0.0200 hc         1 42B       0.026200
     14 H6C1        -1.5350     2.3120     1.2800 h1         1 42B       0.046200
     15 H6C2        -2.2130     0.7570     0.8300 h1         1 42B       0.046200
     16 O31         -0.7880    -1.7300     1.9020 o          1 42B      -0.724000
@<TRIPOS>BOND
     1     1     7 1   
     2     1     8 1   
     3     1     9 1   
     4     2     3 1   
     5     2     4 1   
     6     2    16 1   
     7     4     5 1   
     8     4     6 1   
     9     4    10 1   
    10     5    11 1   
    11     6     7 1   
    12     6    12 1   
    13     6    13 1   
    14     7    14 1   
    15     7    15 1   
@<TRIPOS>SUBSTRUCTURE
     1 42B         1 TEMP              0 ****  ****    0 ROOT
