@<TRIPOS>MOLECULE
42C
   21    22     1     0     0
SMALL
bcc


@<TRIPOS>ATOM
      1 C1           0.7980    -0.2370    -0.0360 ca         1 42C       0.746200
      2 C2          -0.4940     0.3340    -0.0010 ca         1 42C      -0.385800
      3 C3          -1.5920    -0.5170     0.1470 ca         1 42C       0.580300
      4 C5          -0.2550    -2.2790     0.2120 ca         1 42C       0.677900
      5 C8          -2.3760     1.4430     0.0330 cc         1 42C       0.426700
      6 C11          3.1990    -0.2980    -0.1860 c3         1 42C       0.224100
      7 C12          1.9590     1.8760    -0.3490 c3         1 42C       0.224100
      8 N10          1.9500     0.4410    -0.1680 nh         1 42C      -0.788300
      9 N6           0.8610    -1.5670     0.0750 nb         1 42C      -0.808000
     10 N4          -1.4960    -1.8490     0.2580 nb         1 42C      -0.681000
     11 N9          -2.7520     0.1970     0.1650 nd         1 42C      -0.642700
     12 N7          -1.0430     1.5930    -0.0700 na         1 42C      -0.244300
     13 H5          -0.1100    -3.3510     0.2960 h5         1 42C       0.047100
     14 H8          -3.0370     2.2950     0.0040 h5         1 42C       0.064800
     15 H11          3.2690    -0.9590    -1.0510 h1         1 42C       0.042367
     16 H11A         4.0210     0.4100    -0.2280 h1         1 42C       0.042367
     17 H11B         3.3160    -0.9050     0.7110 h1         1 42C       0.042367
     18 H12          1.4230     2.1810    -1.2500 h1         1 42C       0.042367
     19 H12A         1.5500     2.4030     0.5160 h1         1 42C       0.042367
     20 H12B         2.9850     2.2130    -0.4640 h1         1 42C       0.042367
     21 HN7         -0.5730     2.4760    -0.1830 hn         1 42C       0.305700
@<TRIPOS>BOND
     1     1     2 ar  
     2     1     8 1   
     3     1     9 ar  
     4     2     3 ar  
     5     2    12 1   
     6     3    10 ar  
     7     3    11 1   
     8     4     9 ar  
     9     4    10 ar  
    10     4    13 1   
    11     5    11 2   
    12     5    12 1   
    13     5    14 1   
    14     6     8 1   
    15     6    15 1   
    16     6    16 1   
    17     6    17 1   
    18     7     8 1   
    19     7    18 1   
    20     7    19 1   
    21     7    20 1   
    22    12    21 1   
@<TRIPOS>SUBSTRUCTURE
     1 42C         1 TEMP              0 ****  ****    0 ROOT
