@<TRIPOS>MOLECULE
42C
   21    22     1     0     0
SMALL
No Charge or Current Charge


@<TRIPOS>ATOM
      1 C1           0.7340    -0.2960    -0.0890 ca         1 42C       0.417900
      2 C2          -0.5480     0.2670     0.0610 ca         1 42C      -0.255200
      3 C3          -1.6580    -0.5330     0.1130 ca         1 42C       0.252000
      4 C5          -0.3000    -2.3580    -0.1110 ca         1 42C       0.151900
      5 C8          -2.3580     1.5190     0.3320 cc         1 42C       0.426700
      6 C11          3.2310    -0.1270     0.2380 c3         1 42C       0.224100
      7 C12          1.9690     1.7780    -0.8310 c3         1 42C       0.224100
      8 N10          1.9270     0.4640    -0.1490 nh         1 42C      -0.788300
      9 N6           0.8480    -1.6400    -0.1660 nb         1 42C      -0.282000
     10 N4          -1.5560    -1.8720     0.0230 nb         1 42C      -0.155000
     11 N9          -2.8040     0.2470     0.2770 nd         1 42C      -0.642700
     12 N7          -0.9750     1.5600     0.2110 na         1 42C      -0.294600
     13 H5          -0.2020    -3.4400    -0.1800 h5         1 42C       0.047100
     14 H8          -2.9590     2.4120     0.4630 h5         1 42C       0.064800
     15 H11          3.6210    -0.7640    -0.5680 h1         1 42C       0.042367
     16 H11A         3.9690     0.6590     0.4460 h1         1 42C       0.042367
     17 H11B         3.1260    -0.7320     1.1480 h1         1 42C       0.042367
     18 H12          1.1860     1.8420    -1.5990 h1         1 42C       0.042367
     19 H12A         1.8260     2.5920    -0.1090 h1         1 42C       0.042367
     20 H12B         2.9330     1.9250    -1.3350 h1         1 42C       0.042367
     21 HN7         -0.4070     2.3960     0.2580 hn         1 42C       0.356000
@<TRIPOS>BOND
     1     1     2 ar  
     2     1     8 1   
     3     1     9 ar  
     4     2     3 ar  
     5     2    12 1   
     6     3    10 ar  
     7     3    11 1   
     8     4     9 ar  
     9     4    10 ar  
    10     4    13 1   
    11     5    11 2   
    12     5    12 1   
    13     5    14 1   
    14     6     8 1   
    15     6    15 1   
    16     6    16 1   
    17     6    17 1   
    18     7     8 1   
    19     7    18 1   
    20     7    19 1   
    21     7    20 1   
    22    12    21 1   
@<TRIPOS>SUBSTRUCTURE
     1 42C         1 TEMP              0 ****  ****    0 ROOT
