@<TRIPOS>MOLECULE
42D
   40    40     1     0     0
SMALL
No Charge or Current Charge


@<TRIPOS>ATOM
      1 O3           1.8670     2.0180    -1.7540 o          1 42D      -0.705500
      2 C1           1.7900     2.8010    -0.8150 c          1 42D       0.690000
      3 O1           2.5990     3.7240    -0.7430 o          1 42D      -0.705500
      4 C2           1.3020     2.2430     0.6250 c6         1 42D       0.263000
      5 O2           2.1750     2.7750     1.6300 oh         1 42D      -0.682000
      6 C3          -0.1400     2.7140     0.9560 c6         1 42D      -0.113400
      7 C4          -1.1880     1.9300     0.1340 c6         1 42D       0.148300
      8 O4          -2.5070     2.3810     0.4870 oh         1 42D      -0.671000
      9 O6           1.3810     0.8040     0.8180 os         1 42D      -0.504000
     10 C6           0.4400    -0.0190     0.0610 c6         1 42D       0.167300
     11 C7           0.7440    -1.4990     0.4810 c3         1 42D       0.147300
     12 C8           1.9400    -2.1300    -0.3000 c3         1 42D       0.138300
     13 C9           2.2740    -3.5780     0.1530 c3         1 42D       0.123600
     14 O9           3.2790    -4.1460    -0.7080 oh         1 42D      -0.707000
     15 O8           1.6480    -2.1770    -1.7080 oh         1 42D      -0.618000
     16 O7           1.0200    -1.5210     1.8940 oh         1 42D      -0.727000
     17 C5          -1.0290     0.3970     0.3790 c6         1 42D       0.094700
     18 N5          -1.9970    -0.3800    -0.4270 ns         1 42D      -0.483900
     19 C10         -3.1780    -0.8920     0.0270 c          1 42D       0.640100
     20 O10         -3.5590    -0.8720     1.1870 o          1 42D      -0.541000
     21 O11         -3.8180    -1.4960    -1.0120 os         1 42D      -0.472100
     22 C22         -5.0770    -2.1380    -0.7410 c3         1 42D       0.176900
     23 H2           2.7360     3.3950     1.1000 ho         1 42D       0.492000
     24 H31C        -0.3390     2.5750     2.0280 hc         1 42D       0.047200
     25 H32C        -0.2320     3.7910     0.7590 hc         1 42D       0.047200
     26 H4          -1.0070     2.1230    -0.9350 h1         1 42D       0.069700
     27 HA          -2.5540     3.3350     0.2620 ho         1 42D       0.434000
     28 H5          -1.2170     0.1970     1.4440 h1         1 42D       0.100700
     29 H6           0.6160     0.0880    -1.0170 h1         1 42D       0.078700
     30 H7          -0.1410    -2.1130     0.2650 h1         1 42D       0.058700
     31 H8           2.8290    -1.5080    -0.1210 h1         1 42D       0.107700
     32 HB           1.3670    -0.6070     2.0630 ho         1 42D       0.523000
     33 H91C         2.6330    -3.5610     1.1900 h1         1 42D       0.019700
     34 H92C         1.3610    -4.1880     0.1250 h1         1 42D       0.019700
     35 HC           2.2240    -2.9010    -2.0450 ho         1 42D       0.421000
     36 H9           3.5080    -5.0320    -0.3410 ho         1 42D       0.486000
     37 HD          -1.8310    -0.4940    -1.4180 hn         1 42D       0.319500
     38 H221        -5.8090    -1.4160    -0.3550 h1         1 42D       0.037700
     39 H222        -5.4860    -2.5800    -1.6580 h1         1 42D       0.037700
     40 H223        -4.9550    -2.9400    -0.0010 h1         1 42D       0.037700
@<TRIPOS>BOND
     1     1     2 1   
     2     2     3 1   
     3     2     4 1   
     4     4     5 1   
     5     4     6 1   
     6     4     9 1   
     7     5    23 1   
     8     6     7 1   
     9     6    24 1   
    10     6    25 1   
    11     7     8 1   
    12     7    17 1   
    13     7    26 1   
    14     8    27 1   
    15     9    10 1   
    16    10    11 1   
    17    10    17 1   
    18    10    29 1   
    19    11    12 1   
    20    11    16 1   
    21    11    30 1   
    22    12    13 1   
    23    12    15 1   
    24    12    31 1   
    25    13    14 1   
    26    13    33 1   
    27    13    34 1   
    28    14    36 1   
    29    15    35 1   
    30    16    32 1   
    31    17    18 1   
    32    17    28 1   
    33    18    19 1   
    34    18    37 1   
    35    19    20 2   
    36    19    21 1   
    37    21    22 1   
    38    22    38 1   
    39    22    39 1   
    40    22    40 1   
@<TRIPOS>SUBSTRUCTURE
     1 42D         1 TEMP              0 ****  ****    0 ROOT
