@<TRIPOS>MOLECULE
42D
   40    40     1     0     0
SMALL
abcg2


@<TRIPOS>ATOM
      1 O3           1.1710     2.4310    -1.8370 o          1 42D      -0.705500
      2 C1           1.8810     2.5760    -0.8320 c          1 42D       0.690000
      3 O1           3.0590     2.9960    -0.7870 o          1 42D      -0.705500
      4 C2           1.2990     2.1770     0.5590 c6         1 42D       0.263000
      5 O2           2.1470     2.6640     1.5290 oh         1 42D      -0.682000
      6 C3          -0.1180     2.6720     0.8260 c6         1 42D      -0.113400
      7 C4          -1.2000     1.9050     0.0770 c6         1 42D       0.148300
      8 O4          -2.4910     2.2570     0.5270 oh         1 42D      -0.671000
      9 O6           1.3440     0.7550     0.6790 os         1 42D      -0.504000
     10 C6           0.4070    -0.0140    -0.0390 c6         1 42D       0.167300
     11 C7           0.6790    -1.4700     0.3430 c3         1 42D       0.147300
     12 C8           2.0660    -1.9510    -0.1230 c3         1 42D       0.138300
     13 C9           2.2450    -3.4310     0.1780 c3         1 42D       0.123600
     14 O9           3.5540    -3.8130    -0.1750 oh         1 42D      -0.707000
     15 O8           2.2810    -1.6710    -1.4880 oh         1 42D      -0.618000
     16 O7           0.5110    -1.6790     1.7260 oh         1 42D      -0.727000
     17 C5          -1.0280     0.4090     0.3070 c6         1 42D       0.094700
     18 N5          -1.9650    -0.3450    -0.4890 ns         1 42D      -0.483900
     19 C10         -3.0450    -0.9670     0.0200 c          1 42D       0.640100
     20 O10         -3.3050    -1.0950     1.1980 o          1 42D      -0.541000
     21 O11         -3.8050    -1.4600    -0.9650 os         1 42D      -0.472100
     22 C22         -4.9680    -2.1840    -0.5810 c3         1 42D       0.176900
     23 H2           2.9400     2.9290     1.0170 ho         1 42D       0.492000
     24 H31C        -0.3110     2.5730     1.9010 hc         1 42D       0.047200
     25 H32C        -0.1820     3.7380     0.5880 hc         1 42D       0.047200
     26 H4          -1.1010     2.1010    -0.9970 h1         1 42D       0.069700
     27 HA          -2.6690     3.1600     0.2450 ho         1 42D       0.434000
     28 H5          -1.2220     0.1880     1.3590 h1         1 42D       0.100700
     29 H6           0.5470     0.0940    -1.1210 h1         1 42D       0.078700
     30 H7          -0.0790    -2.0880    -0.1520 h1         1 42D       0.058700
     31 H8           2.8360    -1.3900     0.4180 h1         1 42D       0.107700
     32 HB           1.0690    -1.0450     2.1910 ho         1 42D       0.523000
     33 H91C         2.0450    -3.6080     1.2400 h1         1 42D       0.019700
     34 H92C         1.4910    -4.0020    -0.3880 h1         1 42D       0.019700
     35 HC           1.6580    -2.1870    -2.0100 ho         1 42D       0.421000
     36 H9           3.6580    -4.7460     0.0310 ho         1 42D       0.486000
     37 HD          -1.9080    -0.2490    -1.4920 hn         1 42D       0.319500
     38 H221        -5.6660    -1.5630    -0.0200 h1         1 42D       0.037700
     39 H222        -5.4400    -2.5020    -1.5060 h1         1 42D       0.037700
     40 H223        -4.7180    -3.0640     0.0120 h1         1 42D       0.037700
@<TRIPOS>BOND
     1     1     2 1   
     2     2     3 1   
     3     2     4 1   
     4     4     5 1   
     5     4     6 1   
     6     4     9 1   
     7     5    23 1   
     8     6     7 1   
     9     6    24 1   
    10     6    25 1   
    11     7     8 1   
    12     7    17 1   
    13     7    26 1   
    14     8    27 1   
    15     9    10 1   
    16    10    11 1   
    17    10    17 1   
    18    10    29 1   
    19    11    12 1   
    20    11    16 1   
    21    11    30 1   
    22    12    13 1   
    23    12    15 1   
    24    12    31 1   
    25    13    14 1   
    26    13    33 1   
    27    13    34 1   
    28    14    36 1   
    29    15    35 1   
    30    16    32 1   
    31    17    18 1   
    32    17    28 1   
    33    18    19 1   
    34    18    37 1   
    35    19    20 2   
    36    19    21 1   
    37    21    22 1   
    38    22    38 1   
    39    22    39 1   
    40    22    40 1   
@<TRIPOS>SUBSTRUCTURE
     1 42D         1 TEMP              0 ****  ****    0 ROOT
