@<TRIPOS>MOLECULE
42F
   40    42     1     0     0
SMALL
No Charge or Current Charge


@<TRIPOS>ATOM
      1 O            2.9500    -2.4430     0.3240 o          1 42F      -0.469000
      2 C14          2.3020    -1.6810    -0.3830 c          1 42F       0.606100
      3 O1           1.1820    -2.0800    -1.0740 os         1 42F      -0.455100
      4 C15          0.6510    -3.3920    -0.8140 c3         1 42F       0.152900
      5 C5           2.7860    -0.2710    -0.7900 c6         1 42F      -0.101700
      6 C4           4.3320    -0.0660    -0.7000 c5         1 42F       0.163500
      7 C3           4.8320     1.3030    -1.2700 c5         1 42F      -0.108400
      8 C2           4.7300     2.2860    -0.0490 c5         1 42F      -0.112400
      9 N            4.7310     0.0530     0.7290 n3         1 42F      -0.688600
     10 C            6.1710    -0.1760     1.0100 c3         1 42F       0.147100
     11 C6           1.9910     0.8900    -0.1110 c6         1 42F       0.002600
     12 C7           2.6600     1.2720     1.2390 c6         1 42F      -0.059400
     13 C1           4.2090     1.3870     1.1200 c5         1 42F       0.159500
     14 C8           0.4710     0.6410    -0.0230 ca         1 42F      -0.066300
     15 C13         -0.3610     1.1130    -1.0600 ca         1 42F      -0.101000
     16 C12         -1.7480     0.8880    -1.0240 ca         1 42F      -0.082500
     17 C11         -2.3160     0.1840     0.0480 ca         1 42F       0.197000
     18 I           -4.4520    -0.1690     0.1000 i          1 42F      -0.320000
     19 C10         -1.5010    -0.2960     1.0840 ca         1 42F      -0.082500
     20 C9          -0.1130    -0.0710     1.0510 ca         1 42F      -0.101000
     21 H1           0.3720    -3.4980     0.2420 h1         1 42F       0.046367
     22 H2          -0.2450    -3.5670    -1.4220 h1         1 42F       0.046367
     23 H3           1.3870    -4.1690    -1.0600 h1         1 42F       0.046367
     24 H4           2.4750    -0.1870    -1.8400 hc         1 42F       0.074700
     25 H5           4.8220    -0.9120    -1.2060 h1         1 42F       0.074700
     26 H6           5.8670     1.2270    -1.6220 hc         1 42F       0.049700
     27 H7           4.2370     1.6370    -2.1270 hc         1 42F       0.049700
     28 H8           5.7120     2.7100     0.1910 hc         1 42F       0.049200
     29 H9           4.0640     3.1340    -0.2450 hc         1 42F       0.049200
     30 H11          6.8140     0.5440     0.4870 h1         1 42F       0.033033
     31 H12          6.3690    -0.0870     2.0870 h1         1 42F       0.033033
     32 H13          6.4660    -1.1860     0.6960 h1         1 42F       0.033033
     33 H14          2.1100     1.7700    -0.7570 hc         1 42F       0.051700
     34 H15          2.2470     2.2250     1.5970 hc         1 42F       0.059200
     35 H16          2.4390     0.5290     2.0140 hc         1 42F       0.059200
     36 H17          4.6020     1.7190     2.0920 h1         1 42F       0.067700
     37 H18          0.0670     1.6540    -1.9020 ha         1 42F       0.120000
     38 H19         -2.3820     1.2540    -1.8260 ha         1 42F       0.126500
     39 H20         -1.9440    -0.8470     1.9090 ha         1 42F       0.126500
     40 H21          0.4970    -0.4710     1.8550 ha         1 42F       0.120000
@<TRIPOS>BOND
     1     1     2 2   
     2     2     3 1   
     3     2     5 1   
     4     3     4 1   
     5     4    21 1   
     6     4    22 1   
     7     4    23 1   
     8     5     6 1   
     9     5    11 1   
    10     5    24 1   
    11     6     7 1   
    12     6     9 1   
    13     6    25 1   
    14     7     8 1   
    15     7    26 1   
    16     7    27 1   
    17     8    13 1   
    18     8    28 1   
    19     8    29 1   
    20     9    10 1   
    21     9    13 1   
    22    10    30 1   
    23    10    31 1   
    24    10    32 1   
    25    11    12 1   
    26    11    14 1   
    27    11    33 1   
    28    12    13 1   
    29    12    34 1   
    30    12    35 1   
    31    13    36 1   
    32    14    15 ar  
    33    14    20 ar  
    34    15    16 ar  
    35    15    37 1   
    36    16    17 ar  
    37    16    38 1   
    38    17    18 1   
    39    17    19 ar  
    40    19    20 ar  
    41    19    39 1   
    42    20    40 1   
@<TRIPOS>SUBSTRUCTURE
     1 42F         1 TEMP              0 ****  ****    0 ROOT
