@<TRIPOS>MOLECULE
42F
   40    42     1     0     0
SMALL
bcc


@<TRIPOS>ATOM
      1 O            1.8760    -1.8890     0.7830 o          1 42F      -0.518000
      2 C14          2.1140    -1.5630    -0.3510 c          1 42F       0.655100
      3 O1           2.0930    -2.4190    -1.3700 os         1 42F      -0.431900
      4 C15          1.7930    -3.7830    -1.0790 c3         1 42F       0.129700
      5 C5           2.5020    -0.1820    -0.8200 c6         1 42F      -0.101700
      6 C4           4.0420    -0.0810    -0.8310 c5         1 42F       0.163500
      7 C3           4.5080     1.3120    -1.3160 c5         1 42F      -0.108400
      8 C2           4.6150     2.1320    -0.0160 c5         1 42F      -0.112400
      9 N            4.5150    -0.1900     0.5400 n3         1 42F      -0.688600
     10 C            5.9240    -0.5150     0.6290 c3         1 42F       0.147100
     11 C6           1.9050     0.9570     0.0310 c6         1 42F       0.002600
     12 C7           2.6790     1.1700     1.3330 c6         1 42F      -0.059400
     13 C1           4.1850     1.1280     1.0800 c5         1 42F       0.159500
     14 C8           0.4060     0.8360     0.1730 ca         1 42F      -0.066300
     15 C13         -0.3980     1.2120    -0.9030 ca         1 42F      -0.119000
     16 C12         -1.7800     1.1110    -0.8570 ca         1 42F      -0.100500
     17 C11         -2.3780     0.6290     0.2980 ca         1 42F       0.059900
     18 I           -4.4740     0.4680     0.3960 i          1 42F      -0.182900
     19 C10         -1.6090     0.2550     1.3890 ca         1 42F      -0.100500
     20 C9          -0.2260     0.3610     1.3180 ca         1 42F      -0.119000
     21 H1           0.8120    -3.8870    -0.6160 h1         1 42F       0.046367
     22 H2           1.7960    -4.3000    -2.0340 h1         1 42F       0.046367
     23 H3           2.5460    -4.2270    -0.4270 h1         1 42F       0.046367
     24 H4           2.1590    -0.0650    -1.8520 hc         1 42F       0.074700
     25 H5           4.4530    -0.8850    -1.4450 h1         1 42F       0.074700
     26 H6           5.4770     1.2290    -1.8090 hc         1 42F       0.049700
     27 H7           3.8230     1.7500    -2.0440 hc         1 42F       0.049700
     28 H8           5.6360     2.4770     0.1520 hc         1 42F       0.049200
     29 H9           3.9820     3.0210    -0.0250 hc         1 42F       0.049200
     30 H11          6.5960     0.1790     0.1050 h1         1 42F       0.033033
     31 H12          6.2270    -0.5370     1.6770 h1         1 42F       0.033033
     32 H13          6.0950    -1.5110     0.2170 h1         1 42F       0.033033
     33 H14          2.0570     1.8570    -0.5740 hc         1 42F       0.051700
     34 H15          2.4020     2.1390     1.7560 hc         1 42F       0.059200
     35 H16          2.4410     0.4080     2.0760 hc         1 42F       0.059200
     36 H17          4.7120     1.2920     2.0220 h1         1 42F       0.067700
     37 H18          0.0630     1.5990    -1.8050 ha         1 42F       0.138000
     38 H19         -2.3680     1.4150    -1.7120 ha         1 42F       0.144500
     39 H20         -2.0670    -0.1170     2.2960 ha         1 42F       0.144500
     40 H21          0.3500     0.0680     2.1840 ha         1 42F       0.138000
@<TRIPOS>BOND
     1     1     2 2   
     2     2     3 1   
     3     2     5 1   
     4     3     4 1   
     5     4    21 1   
     6     4    22 1   
     7     4    23 1   
     8     5     6 1   
     9     5    11 1   
    10     5    24 1   
    11     6     7 1   
    12     6     9 1   
    13     6    25 1   
    14     7     8 1   
    15     7    26 1   
    16     7    27 1   
    17     8    13 1   
    18     8    28 1   
    19     8    29 1   
    20     9    10 1   
    21     9    13 1   
    22    10    30 1   
    23    10    31 1   
    24    10    32 1   
    25    11    12 1   
    26    11    14 1   
    27    11    33 1   
    28    12    13 1   
    29    12    34 1   
    30    12    35 1   
    31    13    36 1   
    32    14    15 ar  
    33    14    20 ar  
    34    15    16 ar  
    35    15    37 1   
    36    16    17 ar  
    37    16    38 1   
    38    17    18 1   
    39    17    19 ar  
    40    19    20 ar  
    41    19    39 1   
    42    20    40 1   
@<TRIPOS>SUBSTRUCTURE
     1 42F         1 TEMP              0 ****  ****    0 ROOT
