@<TRIPOS>MOLECULE
42G
   59    60     1     0     0
SMALL
abcg2


@<TRIPOS>ATOM
      1 C01         -7.5790     0.1360     0.2490 ca         1 42G      -0.271500
      2 C02         -6.8480    -0.4060     1.2950 ca         1 42G      -0.007000
      3 C03         -5.4930    -0.1260     1.3840 ca         1 42G      -0.127000
      4 C04         -4.8650     0.6820     0.4400 ca         1 42G      -0.025300
      5 C05         -5.6220     1.2090    -0.6040 ca         1 42G      -0.127000
      6 C06         -6.9780     0.9460    -0.7050 ca         1 42G      -0.007000
      7 S07         -9.3080    -0.2070     0.1200 sy         1 42G       1.124600
      8 O08         -9.7060    -0.2130    -1.2800 o          1 42G      -0.542500
      9 O09         -9.5880    -1.3940     0.9180 o          1 42G      -0.542500
     10 N10         -9.9570     1.1700     0.7640 n8         1 42G      -1.001100
     11 C11         -3.3870     0.9340     0.5180 c3         1 42G      -0.059100
     12 C12         -2.6150    -0.1830    -0.1790 c3         1 42G       0.106000
     13 N13         -1.1940     0.0670    -0.0930 ns         1 42G      -0.508900
     14 C14         -0.2930    -0.6560    -0.7810 c          1 42G       0.617700
     15 O15         -0.6190    -1.5730    -1.5250 o          1 42G      -0.601100
     16 C16          1.1350    -0.2760    -0.5920 ca         1 42G      -0.194600
     17 C17          1.5350     1.0210    -0.2600 ca         1 42G      -0.033000
     18 C18          2.8700     1.3370    -0.1180 ca         1 42G      -0.185500
     19 C19          3.8490     0.3550    -0.2970 ca         1 42G       0.167100
     20 C20          3.4620    -0.9430    -0.6310 ca         1 42G      -0.185500
     21 C21          2.1170    -1.2390    -0.7870 ca         1 42G      -0.033000
     22 O22          5.1190     0.7500    -0.1320 os         1 42G      -0.329100
     23 C23          6.1630    -0.1960    -0.2770 c3         1 42G       0.128600
     24 C24          7.4820     0.5270    -0.0680 c3         1 42G       0.160300
     25 O25          7.6680     1.5630    -1.0080 oh         1 42G      -0.638000
     26 C26          8.6310    -0.4740    -0.0750 c3         1 42G       0.129800
     27 N27          9.8890     0.1850     0.2040 n7         1 42G      -0.858400
     28 C28         11.0560    -0.6860     0.1240 c3         1 42G       0.175500
     29 C29         12.3110     0.1750     0.1780 c3         1 42G      -0.090600
     30 C30         11.0570    -1.7050     1.2560 c3         1 42G      -0.090600
     31 H1          -7.3180    -1.0380     2.0360 ha         1 42G       0.138000
     32 H2          -4.9200    -0.5440     2.2030 ha         1 42G       0.120000
     33 H3          -5.1470     1.8360    -1.3490 ha         1 42G       0.120000
     34 H4          -7.5500     1.3670    -1.5210 ha         1 42G       0.138000
     35 H5          -9.8320     1.2270     1.7700 hn         1 42G       0.471500
     36 H6         -10.9420     1.2590     0.5310 hn         1 42G       0.471500
     37 H7          -3.1430     1.8910     0.0510 hc         1 42G       0.054700
     38 H8          -3.0780     0.9960     1.5650 hc         1 42G       0.054700
     39 H9          -2.8720    -1.1460     0.2730 h1         1 42G       0.058200
     40 H10         -2.9110    -0.2340    -1.2290 h1         1 42G       0.058200
     41 H11         -0.8720     0.6700     0.6470 hn         1 42G       0.312500
     42 H12          0.8040     1.8110    -0.1350 ha         1 42G       0.123500
     43 H13          3.1690     2.3490     0.1260 ha         1 42G       0.126500
     44 H14          4.1890    -1.7300    -0.7730 ha         1 42G       0.126500
     45 H15          1.8330    -2.2480    -1.0550 ha         1 42G       0.123500
     46 H16          6.0580    -1.0000     0.4590 h1         1 42G       0.040200
     47 H17          6.1370    -0.6530    -1.2750 h1         1 42G       0.040200
     48 H18          7.4640     1.0160     0.9110 h1         1 42G       0.103700
     49 H19          7.6990     1.1760    -1.8910 ho         1 42G       0.435000
     50 H20          8.4350    -1.2210     0.6980 h1         1 42G       0.031700
     51 H21          8.6360    -1.0200    -1.0360 h1         1 42G       0.031700
     52 H22         10.0070     0.9320    -0.4700 hn         1 42G       0.420000
     53 H24         11.0650    -1.2440    -0.8290 h1         1 42G       0.013700
     54 H25         12.3540     0.7340     1.1150 hc         1 42G       0.038867
     55 H26         13.2070    -0.4420     0.1110 hc         1 42G       0.038867
     56 H27         12.3390     0.8910    -0.6460 hc         1 42G       0.038867
     57 H28         10.2030    -2.3810     1.2060 hc         1 42G       0.038867
     58 H29         11.9570    -2.3180     1.2120 hc         1 42G       0.038867
     59 H30         11.0350    -1.2020     2.2250 hc         1 42G       0.038867
@<TRIPOS>BOND
     1     1     2 ar  
     2     1     6 ar  
     3     1     7 1   
     4     2     3 ar  
     5     2    31 1   
     6     3     4 ar  
     7     3    32 1   
     8     4     5 ar  
     9     4    11 1   
    10     5     6 ar  
    11     5    33 1   
    12     6    34 1   
    13     7     8 2   
    14     7     9 2   
    15     7    10 1   
    16    10    35 1   
    17    10    36 1   
    18    11    12 1   
    19    11    37 1   
    20    11    38 1   
    21    12    13 1   
    22    12    39 1   
    23    12    40 1   
    24    13    14 1   
    25    13    41 1   
    26    14    15 2   
    27    14    16 1   
    28    16    17 ar  
    29    16    21 ar  
    30    17    18 ar  
    31    17    42 1   
    32    18    19 ar  
    33    18    43 1   
    34    19    20 ar  
    35    19    22 1   
    36    20    21 ar  
    37    20    44 1   
    38    21    45 1   
    39    22    23 1   
    40    23    24 1   
    41    23    46 1   
    42    23    47 1   
    43    24    25 1   
    44    24    26 1   
    45    24    48 1   
    46    25    49 1   
    47    26    27 1   
    48    26    50 1   
    49    26    51 1   
    50    27    28 1   
    51    27    52 1   
    52    28    29 1   
    53    28    30 1   
    54    28    53 1   
    55    29    54 1   
    56    29    55 1   
    57    29    56 1   
    58    30    57 1   
    59    30    58 1   
    60    30    59 1   
@<TRIPOS>SUBSTRUCTURE
     1 42G         1 TEMP              0 ****  ****    0 ROOT
