@<TRIPOS>MOLECULE
42G
   59    60     1     0     0
SMALL
No Charge or Current Charge


@<TRIPOS>ATOM
      1 C01         -7.8240     0.3130    -0.0060 ca         1 42G      -0.271500
      2 C02         -7.1480    -0.0170     1.1880 ca         1 42G      -0.007000
      3 C03         -5.7620     0.1910     1.2920 ca         1 42G      -0.127000
      4 C04         -5.0380     0.7290     0.2120 ca         1 42G      -0.025300
      5 C05         -5.7140     1.0550    -0.9780 ca         1 42G      -0.127000
      6 C06         -7.1000     0.8500    -1.0900 ca         1 42G      -0.007000
      7 S07         -9.5940     0.0530    -0.1490 sy         1 42G       1.124600
      8 O08         -9.9800    -0.1030    -1.5520 o          1 42G      -0.542500
      9 O09        -10.0560    -0.8450     0.9070 o          1 42G      -0.542500
     10 N10        -10.1830     1.5130     0.2950 n8         1 42G      -1.001100
     11 C11         -3.5360     0.9470     0.3270 c3         1 42G      -0.059100
     12 C12         -2.7410    -0.2900    -0.1280 c3         1 42G       0.106000
     13 N13         -1.2960    -0.0820    -0.0180 ns         1 42G      -0.508900
     14 C14         -0.3490    -1.0230    -0.3550 c          1 42G       0.617700
     15 O15         -0.6770    -2.1230    -0.7800 o          1 42G      -0.601100
     16 C16          1.1020    -0.6290    -0.1740 ca         1 42G      -0.194600
     17 C17          1.4830     0.6430     0.3180 ca         1 42G      -0.033000
     18 C18          2.8410     0.9690     0.4710 ca         1 42G      -0.185500
     19 C19          3.8410     0.0440     0.1420 ca         1 42G       0.167100
     20 C20          3.4740    -1.2240    -0.3490 ca         1 42G      -0.185500
     21 C21          2.1170    -1.5550    -0.5040 ca         1 42G      -0.033000
     22 O22          5.1560     0.4250     0.3150 os         1 42G      -0.329100
     23 C23          6.2570    -0.4530     0.0090 c3         1 42G       0.128600
     24 C24          7.5760     0.2930     0.3280 c3         1 42G       0.160300
     25 O25          7.6100     1.5550    -0.3780 oh         1 42G      -0.638000
     26 C26          8.8260    -0.5570    -0.0360 c3         1 42G       0.129800
     27 N27         10.0770     0.1750     0.2730 n7         1 42G      -0.858400
     28 C28         11.3250    -0.4110    -0.2500 c3         1 42G       0.175500
     29 C29         12.4520     0.6320    -0.1190 c3         1 42G      -0.090600
     30 C30         11.6710    -1.7230     0.4880 c3         1 42G      -0.090600
     31 H1          -7.6890    -0.4360     2.0360 ha         1 42G       0.138000
     32 H2          -5.2500    -0.0690     2.2160 ha         1 42G       0.120000
     33 H3          -5.1650     1.4690    -1.8210 ha         1 42G       0.120000
     34 H4          -7.6060     1.1110    -2.0190 ha         1 42G       0.138000
     35 H5          -9.4080     1.9090     0.8200 hn         1 42G       0.471500
     36 H6         -10.8500     1.2420     1.0140 hn         1 42G       0.471500
     37 H7          -3.2330     1.8110    -0.2780 hc         1 42G       0.054700
     38 H8          -3.2680     1.1860     1.3630 hc         1 42G       0.054700
     39 H9          -3.0240    -1.1540     0.4890 h1         1 42G       0.058200
     40 H10         -2.9880    -0.5200    -1.1730 h1         1 42G       0.058200
     41 H11         -0.9600     0.8060     0.3270 hn         1 42G       0.312500
     42 H12          0.7420     1.3930     0.5870 ha         1 42G       0.123500
     43 H13          3.1220     1.9480     0.8500 ha         1 42G       0.126500
     44 H14          4.2230    -1.9650    -0.6150 ha         1 42G       0.126500
     45 H15          1.8570    -2.5410    -0.8850 ha         1 42G       0.123500
     46 H16          6.2030    -1.3670     0.6160 h1         1 42G       0.040200
     47 H17          6.2430    -0.7370    -1.0510 h1         1 42G       0.040200
     48 H18          7.5990     0.4690     1.4130 h1         1 42G       0.103700
     49 H19          6.7040     1.9280    -0.3030 ho         1 42G       0.435000
     50 H20          8.7860    -1.5040     0.5190 h1         1 42G       0.031700
     51 H21          8.7810    -0.7980    -1.1070 h1         1 42G       0.031700
     52 H22          9.9670     1.1050    -0.1530 hn         1 42G       0.420000
     53 H24         11.2060    -0.6360    -1.3190 h1         1 42G       0.013700
     54 H25         12.6220     0.8980     0.9310 hc         1 42G       0.038867
     55 H26         13.3890     0.2380    -0.5290 hc         1 42G       0.038867
     56 H27         12.2020     1.5460    -0.6710 hc         1 42G       0.038867
     57 H28         10.9060    -2.4890     0.3140 hc         1 42G       0.038867
     58 H29         12.6270    -2.1220     0.1300 hc         1 42G       0.038867
     59 H30         11.7540    -1.5560     1.5690 hc         1 42G       0.038867
@<TRIPOS>BOND
     1     1     2 ar  
     2     1     6 ar  
     3     1     7 1   
     4     2     3 ar  
     5     2    31 1   
     6     3     4 ar  
     7     3    32 1   
     8     4     5 ar  
     9     4    11 1   
    10     5     6 ar  
    11     5    33 1   
    12     6    34 1   
    13     7     8 2   
    14     7     9 2   
    15     7    10 1   
    16    10    35 1   
    17    10    36 1   
    18    11    12 1   
    19    11    37 1   
    20    11    38 1   
    21    12    13 1   
    22    12    39 1   
    23    12    40 1   
    24    13    14 1   
    25    13    41 1   
    26    14    15 2   
    27    14    16 1   
    28    16    17 ar  
    29    16    21 ar  
    30    17    18 ar  
    31    17    42 1   
    32    18    19 ar  
    33    18    43 1   
    34    19    20 ar  
    35    19    22 1   
    36    20    21 ar  
    37    20    44 1   
    38    21    45 1   
    39    22    23 1   
    40    23    24 1   
    41    23    46 1   
    42    23    47 1   
    43    24    25 1   
    44    24    26 1   
    45    24    48 1   
    46    25    49 1   
    47    26    27 1   
    48    26    50 1   
    49    26    51 1   
    50    27    28 1   
    51    27    52 1   
    52    28    29 1   
    53    28    30 1   
    54    28    53 1   
    55    29    54 1   
    56    29    55 1   
    57    29    56 1   
    58    30    57 1   
    59    30    58 1   
    60    30    59 1   
@<TRIPOS>SUBSTRUCTURE
     1 42G         1 TEMP              0 ****  ****    0 ROOT
