@<TRIPOS>MOLECULE
42H
   87    86     1     0     0
SMALL
bcc


@<TRIPOS>ATOM
      1 O6           1.4430    -2.3200     1.8910 o          1 42H      -0.543000
      2 C8           1.3950    -1.5160     0.9930 c          1 42H       0.641100
      3 O5           2.4750    -1.0070     0.4110 os         1 42H      -0.413900
      4 C7           3.7560    -1.4220     0.8840 c3         1 42H       0.102400
      5 C            4.7990    -0.7770    -0.0130 c3         1 42H       0.135100
      6 C1           6.1790    -1.2850     0.3750 c3         1 42H       0.164400
      7 O1           7.1200    -0.7630    -0.5380 os         1 42H      -0.557200
      8 P            8.7090    -1.0290    -0.2550 p5         1 42H       1.381800
      9 O4           9.1090    -2.3980    -0.7040 o          1 42H      -0.815500
     10 O3           9.1800     0.0930    -1.3650 os         1 42H      -0.549200
     11 C2          10.5600     0.3340    -1.5060 c3         1 42H       0.191400
     12 C3          10.8710     1.8120    -1.5630 c3         1 42H       0.113800
     13 N           10.7300     2.6070    -0.2890 n4         1 42H      -0.598800
     14 C6          11.2930     3.9610    -0.5550 c3         1 42H       0.102100
     15 C5           9.3060     2.7670     0.1260 c3         1 42H       0.102100
     16 C4          11.4970     1.9760     0.8220 c3         1 42H       0.102100
     17 O2           9.0870    -0.5590     1.1210 o          1 42H      -0.815500
     18 O            4.7170     0.6250    -0.0060 oh         1 42H      -0.574800
     19 C9           0.1340    -0.9500     0.4010 c3         1 42H      -0.138400
     20 C10         -1.1000    -1.8000     0.6620 c3         1 42H      -0.068400
     21 C11         -2.3400    -1.2150    -0.0020 c3         1 42H      -0.076400
     22 C12         -3.5780    -2.0850     0.1740 c3         1 42H      -0.074400
     23 C13         -4.8200    -1.4910    -0.4780 c3         1 42H      -0.075400
     24 C14         -6.0460    -2.3870    -0.3600 c3         1 42H      -0.073400
     25 C15         -7.2820    -1.8010    -1.0460 c3         1 42H      -0.043200
     26 C16         -8.4570    -2.7240    -0.9650 c2         1 42H      -0.165200
     27 C17         -9.6270    -2.5080    -0.3660 c2         1 42H      -0.166200
     28 C18        -10.0900    -1.2700     0.3380 c3         1 42H      -0.042200
     29 C19        -11.2990    -0.6430    -0.3580 c3         1 42H      -0.073400
     30 C20        -11.8460     0.5780     0.3720 c3         1 42H      -0.075400
     31 C21        -13.0630     1.1870    -0.3150 c3         1 42H      -0.074400
     32 C22        -13.6140     2.4120     0.4060 c3         1 42H      -0.074400
     33 C23        -14.8370     3.0130    -0.2770 c3         1 42H      -0.075400
     34 C24        -15.3880     4.2380     0.4440 c3         1 42H      -0.075400
     35 C25        -16.6110     4.8330    -0.2410 c3         1 42H      -0.088100
     36 H1           3.8920    -1.1170     1.9260 h1         1 42H       0.051700
     37 H2           3.8430    -2.5110     0.8390 h1         1 42H       0.051700
     38 H3           4.6000    -1.0840    -1.0450 h1         1 42H       0.096700
     39 H4           6.4120    -0.9760     1.4030 h1         1 42H       0.033200
     40 H5           6.1780    -2.3810     0.3570 h1         1 42H       0.033200
     41 H6          11.1610    -0.1530    -0.7320 h1         1 42H       0.055200
     42 H7          10.9110    -0.0690    -2.4600 h1         1 42H       0.055200
     43 H8          11.9120     1.9190    -1.8700 hx         1 42H       0.080200
     44 H9          10.2520     2.3090    -2.3100 hx         1 42H       0.080200
     45 H10         10.7520     4.4160    -1.3810 hx         1 42H       0.095144
     46 H11         11.1840     4.5710     0.3370 hx         1 42H       0.095144
     47 H12         12.3460     3.8710    -0.8100 hx         1 42H       0.095144
     48 H13          8.9070     1.8170     0.4600 hx         1 42H       0.095144
     49 H14          9.2700     3.4790     0.9470 hx         1 42H       0.095144
     50 H15          8.7300     3.1510    -0.7110 hx         1 42H       0.095144
     51 H16         12.5130     1.7830     0.4900 hx         1 42H       0.095144
     52 H17         11.5140     2.6620     1.6650 hx         1 42H       0.095144
     53 H18         11.0100     1.0520     1.1190 hx         1 42H       0.095144
     54 H20          4.9870     0.9500     0.8600 ho         1 42H       0.390000
     55 H21         -0.0030     0.0520     0.8250 hc         1 42H       0.070700
     56 H22          0.2790    -0.7980    -0.6710 hc         1 42H       0.070700
     57 H23         -0.9330    -2.8150     0.2890 hc         1 42H       0.053700
     58 H24         -1.2700    -1.8900     1.7380 hc         1 42H       0.053700
     59 H25         -2.5360    -0.2160     0.4010 hc         1 42H       0.037200
     60 H26         -2.1480    -1.0780    -1.0720 hc         1 42H       0.037200
     61 H27         -3.3850    -3.0770    -0.2490 hc         1 42H       0.040700
     62 H28         -3.7670    -2.2410     1.2420 hc         1 42H       0.040700
     63 H29         -5.0360    -0.5160    -0.0290 hc         1 42H       0.036700
     64 H30         -4.6150    -1.2980    -1.5370 hc         1 42H       0.036700
     65 H31         -5.8220    -3.3680    -0.7940 hc         1 42H       0.040200
     66 H32         -6.2730    -2.5650     0.6960 hc         1 42H       0.040200
     67 H33         -7.5130    -0.8260    -0.6110 hc         1 42H       0.044200
     68 H34         -7.0410    -1.6190    -2.0990 hc         1 42H       0.044200
     69 H35         -8.3110    -3.6910    -1.4420 ha         1 42H       0.115000
     70 H36        -10.3620    -3.3090    -0.4040 ha         1 42H       0.114000
     71 H37        -10.3730    -1.5300     1.3640 hc         1 42H       0.044200
     72 H38         -9.2900    -0.5310     0.4180 hc         1 42H       0.044200
     73 H39        -11.0210    -0.3660    -1.3790 hc         1 42H       0.039200
     74 H40        -12.0910    -1.3950    -0.4500 hc         1 42H       0.039200
     75 H41        -12.1100     0.2990     1.3980 hc         1 42H       0.036700
     76 H42        -11.0590     1.3350     0.4560 hc         1 42H       0.036700
     77 H43        -12.8000     1.4590    -1.3430 hc         1 42H       0.037200
     78 H44        -13.8500     0.4290    -0.3930 hc         1 42H       0.037200
     79 H45        -13.8710     2.1410     1.4360 hc         1 42H       0.036700
     80 H46        -12.8290     3.1730     0.4800 hc         1 42H       0.036700
     81 H47        -14.5810     3.2840    -1.3070 hc         1 42H       0.036700
     82 H48        -15.6220     2.2520    -0.3490 hc         1 42H       0.036700
     83 H49        -15.6420     3.9670     1.4730 hc         1 42H       0.036700
     84 H50        -14.6040     4.9990     0.5150 hc         1 42H       0.036700
     85 H51        -16.3810     5.1480    -1.2600 hc         1 42H       0.031033
     86 H52        -17.4250     4.1070    -0.2980 hc         1 42H       0.031033
     87 H53        -16.9840     5.7060     0.2970 hc         1 42H       0.031033
@<TRIPOS>BOND
     1     1     2 2   
     2     2     3 1   
     3     2    19 1   
     4     3     4 1   
     5     4     5 1   
     6     4    36 1   
     7     4    37 1   
     8     5     6 1   
     9     5    18 1   
    10     5    38 1   
    11     6     7 1   
    12     6    39 1   
    13     6    40 1   
    14     7     8 1   
    15     8     9 1   
    16     8    10 1   
    17     8    17 1   
    18    10    11 1   
    19    11    12 1   
    20    11    41 1   
    21    11    42 1   
    22    12    13 1   
    23    12    43 1   
    24    12    44 1   
    25    13    14 1   
    26    13    15 1   
    27    13    16 1   
    28    14    45 1   
    29    14    46 1   
    30    14    47 1   
    31    15    48 1   
    32    15    49 1   
    33    15    50 1   
    34    16    51 1   
    35    16    52 1   
    36    16    53 1   
    37    18    54 1   
    38    19    20 1   
    39    19    55 1   
    40    19    56 1   
    41    20    21 1   
    42    20    57 1   
    43    20    58 1   
    44    21    22 1   
    45    21    59 1   
    46    21    60 1   
    47    22    23 1   
    48    22    61 1   
    49    22    62 1   
    50    23    24 1   
    51    23    63 1   
    52    23    64 1   
    53    24    25 1   
    54    24    65 1   
    55    24    66 1   
    56    25    26 1   
    57    25    67 1   
    58    25    68 1   
    59    26    27 2   
    60    26    69 1   
    61    27    28 1   
    62    27    70 1   
    63    28    29 1   
    64    28    71 1   
    65    28    72 1   
    66    29    30 1   
    67    29    73 1   
    68    29    74 1   
    69    30    31 1   
    70    30    75 1   
    71    30    76 1   
    72    31    32 1   
    73    31    77 1   
    74    31    78 1   
    75    32    33 1   
    76    32    79 1   
    77    32    80 1   
    78    33    34 1   
    79    33    81 1   
    80    33    82 1   
    81    34    35 1   
    82    34    83 1   
    83    34    84 1   
    84    35    85 1   
    85    35    86 1   
    86    35    87 1   
@<TRIPOS>SUBSTRUCTURE
     1 42H         1 TEMP              0 ****  ****    0 ROOT
