@<TRIPOS>MOLECULE
42H
   87    86     1     0     0
SMALL
No Charge or Current Charge


@<TRIPOS>ATOM
      1 O6           1.2310     0.3500     3.3190 o          1 42H      -0.494000
      2 C8           1.2860     0.3080     2.0970 c          1 42H       0.592100
      3 O5           2.3540    -0.1690     1.3840 os         1 42H      -0.437100
      4 C7           3.5110    -0.6260     2.1160 c3         1 42H       0.125600
      5 C            4.5970    -1.0860     1.1090 c3         1 42H       0.158300
      6 C1           5.7890    -1.7740     1.8390 c3         1 42H       0.187600
      7 O1           6.6410    -2.4510     0.8930 os         1 42H      -0.580400
      8 P            7.9970    -1.7890     0.3240 p5         1 42H       1.381800
      9 O4           8.8050    -2.8260    -0.3800 o          1 42H      -0.815500
     10 O3           7.3270    -0.7680    -0.7260 os         1 42H      -0.572400
     11 C2           8.1090    -0.2680    -1.8190 c3         1 42H       0.214600
     12 C3           8.0070     1.2780    -1.8630 c3         1 42H       0.085600
     13 N            8.5530     2.1320    -0.6940 n4         1 42H      -0.486000
     14 C6           8.5800     3.6010    -1.1360 c3         1 42H       0.073900
     15 C5           7.6440     2.0170     0.5370 c3         1 42H       0.073900
     16 C4           9.9790     1.7020    -0.3230 c3         1 42H       0.073900
     17 O2           8.7720    -1.0880     1.3840 o          1 42H      -0.815500
     18 O            5.0450     0.0410     0.3270 oh         1 42H      -0.637000
     19 C9           0.1350     0.7340     1.1820 c3         1 42H      -0.138400
     20 C10         -0.8770    -0.4180     0.9780 c3         1 42H      -0.068400
     21 C11         -2.0510    -0.0330     0.0510 c3         1 42H      -0.076400
     22 C12         -3.0620    -1.1830    -0.1530 c3         1 42H      -0.074400
     23 C13         -4.2360    -0.7980    -1.0790 c3         1 42H      -0.075400
     24 C14         -5.2480    -1.9470    -1.2820 c3         1 42H      -0.073400
     25 C15         -6.4230    -1.5640    -2.2040 c3         1 42H      -0.043200
     26 C16         -7.4080    -2.7060    -2.3780 c2         1 42H      -0.215200
     27 C17         -8.5510    -2.8940    -1.6970 c2         1 42H      -0.216200
     28 C18         -9.0940    -2.0300    -0.5740 c3         1 42H      -0.042200
     29 C19        -10.1290    -1.0040    -1.0800 c3         1 42H      -0.073400
     30 C20        -10.6890    -0.1030     0.0430 c3         1 42H      -0.075400
     31 C21        -11.7230     0.9250    -0.4660 c3         1 42H      -0.074400
     32 C22        -12.2820     1.8270     0.6560 c3         1 42H      -0.074400
     33 C23        -13.3150     2.8550     0.1470 c3         1 42H      -0.075400
     34 C24        -13.8750     3.7570     1.2690 c3         1 42H      -0.075400
     35 C25        -14.9060     4.7830     0.7610 c3         1 42H      -0.088100
     36 H1           3.9170     0.1750     2.7480 h1         1 42H       0.051700
     37 H2           3.2400    -1.4690     2.7660 h1         1 42H       0.051700
     38 H3           4.1380    -1.8410     0.4550 h1         1 42H       0.096700
     39 H4           6.3440    -1.0250     2.4190 h1         1 42H       0.033200
     40 H5           5.3910    -2.5070     2.5540 h1         1 42H       0.033200
     41 H6           9.1660    -0.5550    -1.7350 h1         1 42H       0.055200
     42 H7           7.7310    -0.6740    -2.7660 h1         1 42H       0.055200
     43 H8           8.5420     1.6030    -2.7580 hx         1 42H       0.080200
     44 H9           6.9580     1.5460    -1.9960 hx         1 42H       0.080200
     45 H10          7.5680     3.9180    -1.3960 hx         1 42H       0.095144
     46 H11          8.9600     4.2170    -0.3190 hx         1 42H       0.095144
     47 H12          9.2320     3.7040    -2.0070 hx         1 42H       0.095144
     48 H13          7.6440     0.9870     0.8940 hx         1 42H       0.095144
     49 H14          8.0200     2.6740     1.3240 hx         1 42H       0.095144
     50 H15          6.6290     2.3110     0.2650 hx         1 42H       0.095144
     51 H16         10.6230     1.7850    -1.2010 hx         1 42H       0.095144
     52 H17         10.3550     2.3500     0.4710 hx         1 42H       0.095144
     53 H18          9.9650     0.6680     0.0290 hx         1 42H       0.095144
     54 H20          5.8400    -0.2700    -0.1780 ho         1 42H       0.429000
     55 H21         -0.3820     1.5910     1.6290 hc         1 42H       0.070700
     56 H22          0.5400     0.9970     0.1980 hc         1 42H       0.070700
     57 H23         -0.3540    -1.2870     0.5560 hc         1 42H       0.053700
     58 H24         -1.2730    -0.7280     1.9530 hc         1 42H       0.053700
     59 H25         -2.5730     0.8350     0.4740 hc         1 42H       0.037200
     60 H26         -1.6550     0.2750    -0.9240 hc         1 42H       0.037200
     61 H27         -2.5400    -2.0510    -0.5750 hc         1 42H       0.040700
     62 H28         -3.4590    -1.4910     0.8230 hc         1 42H       0.040700
     63 H29         -4.7580     0.0700    -0.6570 hc         1 42H       0.036700
     64 H30         -3.8400    -0.4900    -2.0550 hc         1 42H       0.036700
     65 H31         -4.7290    -2.8160    -1.7040 hc         1 42H       0.040200
     66 H32         -5.6450    -2.2550    -0.3060 hc         1 42H       0.040200
     67 H33         -6.9250    -0.6790    -1.7940 hc         1 42H       0.044200
     68 H34         -6.0320    -1.2620    -3.1840 hc         1 42H       0.044200
     69 H35         -7.1250    -3.4130    -3.1610 ha         1 42H       0.165000
     70 H36         -9.1800    -3.7570    -1.9290 ha         1 42H       0.164000
     71 H37         -9.5570    -2.6670     0.1900 hc         1 42H       0.044200
     72 H38         -8.2800    -1.4970    -0.0680 hc         1 42H       0.044200
     73 H39         -9.6620    -0.3750    -1.8480 hc         1 42H       0.039200
     74 H40        -10.9570    -1.5380    -1.5630 hc         1 42H       0.039200
     75 H41        -11.1560    -0.7330     0.8110 hc         1 42H       0.036700
     76 H42         -9.8600     0.4290     0.5250 hc         1 42H       0.036700
     77 H43        -11.2560     1.5540    -1.2340 hc         1 42H       0.037200
     78 H44        -12.5520     0.3930    -0.9480 hc         1 42H       0.037200
     79 H45        -12.7490     1.1970     1.4240 hc         1 42H       0.036700
     80 H46        -11.4520     2.3580     1.1380 hc         1 42H       0.036700
     81 H47        -12.8490     3.4840    -0.6220 hc         1 42H       0.036700
     82 H48        -14.1450     2.3230    -0.3350 hc         1 42H       0.036700
     83 H49        -14.3440     3.1310     2.0380 hc         1 42H       0.036700
     84 H50        -13.0480     4.2920     1.7520 hc         1 42H       0.036700
     85 H51        -14.4560     5.4480     0.0140 hc         1 42H       0.031033
     86 H52        -15.7640     4.2770     0.3030 hc         1 42H       0.031033
     87 H53        -15.2730     5.3980     1.5910 hc         1 42H       0.031033
@<TRIPOS>BOND
     1     1     2 2   
     2     2     3 1   
     3     2    19 1   
     4     3     4 1   
     5     4     5 1   
     6     4    36 1   
     7     4    37 1   
     8     5     6 1   
     9     5    18 1   
    10     5    38 1   
    11     6     7 1   
    12     6    39 1   
    13     6    40 1   
    14     7     8 1   
    15     8     9 1   
    16     8    10 1   
    17     8    17 1   
    18    10    11 1   
    19    11    12 1   
    20    11    41 1   
    21    11    42 1   
    22    12    13 1   
    23    12    43 1   
    24    12    44 1   
    25    13    14 1   
    26    13    15 1   
    27    13    16 1   
    28    14    45 1   
    29    14    46 1   
    30    14    47 1   
    31    15    48 1   
    32    15    49 1   
    33    15    50 1   
    34    16    51 1   
    35    16    52 1   
    36    16    53 1   
    37    18    54 1   
    38    19    20 1   
    39    19    55 1   
    40    19    56 1   
    41    20    21 1   
    42    20    57 1   
    43    20    58 1   
    44    21    22 1   
    45    21    59 1   
    46    21    60 1   
    47    22    23 1   
    48    22    61 1   
    49    22    62 1   
    50    23    24 1   
    51    23    63 1   
    52    23    64 1   
    53    24    25 1   
    54    24    65 1   
    55    24    66 1   
    56    25    26 1   
    57    25    67 1   
    58    25    68 1   
    59    26    27 2   
    60    26    69 1   
    61    27    28 1   
    62    27    70 1   
    63    28    29 1   
    64    28    71 1   
    65    28    72 1   
    66    29    30 1   
    67    29    73 1   
    68    29    74 1   
    69    30    31 1   
    70    30    75 1   
    71    30    76 1   
    72    31    32 1   
    73    31    77 1   
    74    31    78 1   
    75    32    33 1   
    76    32    79 1   
    77    32    80 1   
    78    33    34 1   
    79    33    81 1   
    80    33    82 1   
    81    34    35 1   
    82    34    83 1   
    83    34    84 1   
    84    35    85 1   
    85    35    86 1   
    86    35    87 1   
@<TRIPOS>SUBSTRUCTURE
     1 42H         1 TEMP              0 ****  ****    0 ROOT
