@<TRIPOS>MOLECULE
42I
   40    43     1     0     0
SMALL
bcc


@<TRIPOS>ATOM
      1 O2          84.2610     1.8830     8.6940 o          1 42I      -0.575100
      2 C14         84.8730     1.3560     7.7830 c          1 42I       0.691700
      3 C18         84.3470     1.3550     6.3850 ca         1 42I      -0.152600
      4 C17         83.5420     2.4200     5.9860 ca         1 42I      -0.089000
      5 C16         83.0050     2.4510     4.7080 ca         1 42I      -0.136500
      6 C19         84.5830     0.3070     5.4960 ca         1 42I      -0.089000
      7 C20         84.0320     0.3320     4.2230 ca         1 42I      -0.136500
      8 C15         83.2480     1.4060     3.8250 ca         1 42I      -0.105000
      9 N3          86.0740     0.7480     7.9550 ns         1 42I      -0.470400
     10 C5          86.6740     0.4850     9.1850 cc         1 42I       0.429500
     11 C6          86.8040     1.3010    10.3480 ca         1 42I      -0.218900
     12 C7          87.5650     0.5050    11.2220 ca         1 42I      -0.027200
     13 N2          87.8270    -0.6430    10.5620 na         1 42I      -0.007100
     14 N1          87.2910    -0.6590     9.3410 nd         1 42I      -0.568100
     15 C1          87.9310     0.9250    12.5040 ca         1 42I      -0.158000
     16 C4          86.4240     2.5850    10.7650 ca         1 42I      -0.025000
     17 C3          86.7960     3.0070    12.0170 ca         1 42I      -0.171000
     18 C2          87.5420     2.1880    12.9040 cp         1 42I       0.025000
     19 C11         87.9060     2.6910    14.2440 cp         1 42I      -0.079000
     20 C10         89.1330     2.3730    14.8260 ca         1 42I      -0.074500
     21 C9          89.4770     2.8280    16.0880 ca         1 42I      -0.196500
     22 C12         87.0330     3.4950    14.9800 ca         1 42I      -0.074500
     23 C13         87.3620     3.9570    16.2420 ca         1 42I      -0.196500
     24 C8          88.5910     3.6250    16.8090 ca         1 42I       0.145100
     25 O1          88.8650     4.0970    18.0390 oh         1 42I      -0.492100
     26 H13         83.3440     3.2320     6.6730 ha         1 42I       0.142000
     27 H12         82.3930     3.2890     4.4030 ha         1 42I       0.136500
     28 H14         85.1710    -0.5540     5.7910 ha         1 42I       0.142000
     29 H15         84.2100    -0.4920     3.5450 ha         1 42I       0.136500
     30 H11         82.8220     1.4270     2.8310 ha         1 42I       0.134000
     31 HN3         86.5240     0.3270     7.1560 hn         1 42I       0.333500
     32 H4          88.3640    -1.4340    10.8810 hn         1 42I       0.328700
     33 H1          88.4840     0.2670    13.1620 ha         1 42I       0.138000
     34 H3          85.8610     3.2400    10.1180 ha         1 42I       0.153000
     35 H2          86.5260     4.0080    12.3300 ha         1 42I       0.135000
     36 H6          89.8510     1.7720    14.2810 ha         1 42I       0.135000
     37 H5          90.4430     2.5680    16.5060 ha         1 42I       0.139500
     38 H7          86.0630     3.7540    14.5730 ha         1 42I       0.135000
     39 H8          86.6630     4.5710    16.7960 ha         1 42I       0.139500
     40 H9          89.7360     3.8000    18.3280 ho         1 42I       0.426000
@<TRIPOS>BOND
     1     1     2 2   
     2     2     3 1   
     3     2     9 1   
     4     3     4 ar  
     5     3     6 ar  
     6     4     5 ar  
     7     4    26 1   
     8     5     8 ar  
     9     5    27 1   
    10     6     7 ar  
    11     6    28 1   
    12     7     8 ar  
    13     7    29 1   
    14     8    30 1   
    15     9    10 1   
    16     9    31 1   
    17    10    11 1   
    18    10    14 2   
    19    11    12 ar  
    20    11    16 ar  
    21    12    13 1   
    22    12    15 ar  
    23    13    14 1   
    24    13    32 1   
    25    15    18 ar  
    26    15    33 1   
    27    16    17 ar  
    28    16    34 1   
    29    17    18 ar  
    30    17    35 1   
    31    18    19 1   
    32    19    20 ar  
    33    19    22 ar  
    34    20    21 ar  
    35    20    36 1   
    36    21    24 ar  
    37    21    37 1   
    38    22    23 ar  
    39    22    38 1   
    40    23    24 ar  
    41    23    39 1   
    42    24    25 1   
    43    25    40 1   
@<TRIPOS>SUBSTRUCTURE
     1 42I         1 TEMP              0 ****  ****    0 ROOT
