@<TRIPOS>MOLECULE
42I
   40    43     1     0     0
SMALL
No Charge or Current Charge


@<TRIPOS>ATOM
      1 O2          84.0700     1.6020     8.8700 o          1 42I      -0.575100
      2 C14         84.7160     1.1310     7.9440 c          1 42I       0.624700
      3 C18         84.3110     1.3600     6.4980 ca         1 42I      -0.152600
      4 C17         83.1140     2.0600     6.2160 ca         1 42I      -0.071000
      5 C16         82.7090     2.2900     4.8910 ca         1 42I      -0.118500
      6 C19         85.0980     0.9050     5.4090 ca         1 42I      -0.071000
      7 C20         84.6880     1.1400     4.0840 ca         1 42I      -0.118500
      8 C15         83.4940     1.8300     3.8230 ca         1 42I      -0.087000
      9 N3          85.8240     0.3450     8.1450 ns         1 42I      -0.403400
     10 C5          86.4800     0.0550     9.3140 cc         1 42I       0.429500
     11 C6          86.6590     0.9520    10.4390 ca         1 42I      -0.218900
     12 C7          87.3780     0.2250    11.3380 ca         1 42I      -0.027200
     13 N2          87.6320    -1.0070    10.7710 na         1 42I      -0.057400
     14 N1          87.1040    -1.1140     9.4760 nd         1 42I      -0.568100
     15 C1          87.8010     0.7510    12.5640 ca         1 42I      -0.140000
     16 C4          86.3660     2.3060    10.6700 ca         1 42I      -0.007000
     17 C3          86.7670     2.8640    11.9030 ca         1 42I      -0.153000
     18 C2          87.4790     2.1000    12.8770 cp         1 42I       0.025000
     19 C11         87.9030     2.7140    14.1760 cp         1 42I      -0.079000
     20 C10         89.1290     2.3550    14.7940 ca         1 42I      -0.056500
     21 C9          89.5250     2.9320    16.0140 ca         1 42I      -0.178500
     22 C12         87.0900     3.6750    14.8300 ca         1 42I      -0.056500
     23 C13         87.4870     4.2510    16.0500 ca         1 42I      -0.178500
     24 C8          88.7020     3.8800    16.6410 ca         1 42I       0.145100
     25 O1          89.0780     4.4440    17.8220 oh         1 42I      -0.531100
     26 H13         82.4870     2.4260     7.0270 ha         1 42I       0.124000
     27 H12         81.7840     2.8280     4.6910 ha         1 42I       0.118500
     28 H14         86.0350     0.3770     5.5650 ha         1 42I       0.124000
     29 H15         85.3000     0.7870     3.2570 ha         1 42I       0.118500
     30 H11         83.1800     2.0100     2.7970 ha         1 42I       0.116000
     31 HN3         86.1190    -0.1750     7.3350 hn         1 42I       0.333500
     32 H4          88.1670    -1.7640    11.1960 hn         1 42I       0.379000
     33 H1          88.3650     0.1330    13.2580 ha         1 42I       0.120000
     34 H3          85.8680     2.9250     9.9290 ha         1 42I       0.135000
     35 H2          86.5460     3.9100    12.0950 ha         1 42I       0.117000
     36 H6          89.7870     1.6320    14.3170 ha         1 42I       0.117000
     37 H5          90.4710     2.6400    16.4620 ha         1 42I       0.121500
     38 H7          86.1370     3.9670    14.3960 ha         1 42I       0.117000
     39 H8          86.8480     4.9830    16.5380 ha         1 42I       0.121500
     40 H9          89.9460     4.0690    18.0830 ho         1 42I       0.465000
@<TRIPOS>BOND
     1     1     2 2   
     2     2     3 1   
     3     2     9 1   
     4     3     4 ar  
     5     3     6 ar  
     6     4     5 ar  
     7     4    26 1   
     8     5     8 ar  
     9     5    27 1   
    10     6     7 ar  
    11     6    28 1   
    12     7     8 ar  
    13     7    29 1   
    14     8    30 1   
    15     9    10 1   
    16     9    31 1   
    17    10    11 1   
    18    10    14 2   
    19    11    12 ar  
    20    11    16 ar  
    21    12    13 1   
    22    12    15 ar  
    23    13    14 1   
    24    13    32 1   
    25    15    18 ar  
    26    15    33 1   
    27    16    17 ar  
    28    16    34 1   
    29    17    18 ar  
    30    17    35 1   
    31    18    19 1   
    32    19    20 ar  
    33    19    22 ar  
    34    20    21 ar  
    35    20    36 1   
    36    21    24 ar  
    37    21    37 1   
    38    22    23 ar  
    39    22    38 1   
    40    23    24 ar  
    41    23    39 1   
    42    24    25 1   
    43    25    40 1   
@<TRIPOS>SUBSTRUCTURE
     1 42I         1 TEMP              0 ****  ****    0 ROOT
