@<TRIPOS>MOLECULE
42J
   20    20     1     0     0
SMALL
bcc


@<TRIPOS>ATOM
      1 CL1         -1.8570    -1.9590     0.1050 cl         1 42J      -0.082400
      2 C6          -0.8200    -0.5920    -0.0670 ca         1 42J       0.028400
      3 C5          -1.3280     0.6980     0.0420 ca         1 42J       0.023400
      4 CL          -3.0030     0.9630     0.3480 cl         1 42J      -0.082400
      5 C4          -0.4760     1.7820    -0.1040 ca         1 42J      -0.113000
      6 C3           0.8710     1.5750    -0.3540 ca         1 42J      -0.119000
      7 C7           0.5290    -0.7900    -0.3180 ca         1 42J      -0.113000
      8 C2           1.3930     0.2890    -0.4660 ca         1 42J      -0.067300
      9 C1           2.8590     0.0600    -0.6900 c3         1 42J      -0.036100
     10 C            3.6070    -0.1270     0.6290 c3         1 42J       0.151800
     11 N            5.0200    -0.3600     0.3820 n8         1 42J      -0.887800
     12 H1          -0.8680     2.7860    -0.0230 ha         1 42J       0.150000
     13 H2           1.5230     2.4330    -0.4660 ha         1 42J       0.137000
     14 H3           0.9060    -1.8020    -0.4020 ha         1 42J       0.151000
     15 H4           3.0120    -0.8240    -1.3120 hc         1 42J       0.058700
     16 H5           3.2860     0.9090    -1.2310 hc         1 42J       0.058700
     17 H6           3.4060     0.7380     1.2780 h1         1 42J       0.032200
     18 H7           3.1980    -0.9990     1.1450 h1         1 42J       0.032200
     19 H8           5.4490     0.4950     0.0510 hn         1 42J       0.339300
     20 H9           5.4840    -0.5760     1.2550 hn         1 42J       0.339300
@<TRIPOS>BOND
     1     1     2 1   
     2     2     3 ar  
     3     2     7 ar  
     4     3     4 1   
     5     3     5 ar  
     6     5     6 ar  
     7     5    12 1   
     8     6     8 ar  
     9     6    13 1   
    10     7     8 ar  
    11     7    14 1   
    12     8     9 1   
    13     9    10 1   
    14     9    15 1   
    15     9    16 1   
    16    10    11 1   
    17    10    17 1   
    18    10    18 1   
    19    11    19 1   
    20    11    20 1   
@<TRIPOS>SUBSTRUCTURE
     1 42J         1 TEMP              0 ****  ****    0 ROOT
