@<TRIPOS>MOLECULE
42J
   20    20     1     0     0
SMALL
No Charge or Current Charge


@<TRIPOS>ATOM
      1 Cl1         -1.9520    -2.0020     0.0280 cl         1 42J      -0.174000
      2 C6          -0.8790    -0.6080    -0.1010 ca         1 42J       0.120000
      3 C5          -1.3740     0.7070     0.0230 ca         1 42J       0.115000
      4 Cl          -3.0880     1.0130     0.3120 cl         1 42J      -0.174000
      5 C4          -0.4950     1.7970    -0.0830 ca         1 42J      -0.095000
      6 C3           0.8760     1.5800    -0.3120 ca         1 42J      -0.101000
      7 C7           0.4920    -0.8220    -0.3310 ca         1 42J      -0.095000
      8 C2           1.3760     0.2700    -0.4390 ca         1 42J      -0.067300
      9 C1           2.8610     0.0340    -0.6830 c3         1 42J      -0.036100
     10 C            3.6440    -0.1340     0.6360 c3         1 42J       0.151800
     11 N            5.0820    -0.3710     0.3980 n8         1 42J      -0.998200
     12 H1          -0.8750     2.8110     0.0140 ha         1 42J       0.132000
     13 H2           1.5480     2.4320    -0.3910 ha         1 42J       0.119000
     14 H3           0.8650    -1.8380    -0.4240 ha         1 42J       0.133000
     15 H4           3.0020    -0.8610    -1.3020 hc         1 42J       0.058700
     16 H5           3.2860     0.8700    -1.2520 hc         1 42J       0.058700
     17 H6           3.5300     0.7710     1.2490 h1         1 42J       0.032200
     18 H7           3.2350    -0.9860     1.1970 h1         1 42J       0.032200
     19 H8           5.4920     0.4630    -0.0400 hn         1 42J       0.394500
     20 H9           5.5660    -0.4270     1.3040 hn         1 42J       0.394500
@<TRIPOS>BOND
     1     1     2 1   
     2     2     3 ar  
     3     2     7 ar  
     4     3     4 1   
     5     3     5 ar  
     6     5     6 ar  
     7     5    12 1   
     8     6     8 ar  
     9     6    13 1   
    10     7     8 ar  
    11     7    14 1   
    12     8     9 1   
    13     9    10 1   
    14     9    15 1   
    15     9    16 1   
    16    10    11 1   
    17    10    17 1   
    18    10    18 1   
    19    11    19 1   
    20    11    20 1   
@<TRIPOS>SUBSTRUCTURE
     1 42J         1 TEMP              0 ****  ****    0 ROOT
