@<TRIPOS>MOLECULE
42K
   36    39     1     0     0
SMALL
No Charge or Current Charge


@<TRIPOS>ATOM
      1 N1          -4.0050    -2.4070    -0.0100 ns         1 42K      -0.389100
      2 N2          -5.0010     2.9330     0.0060 na         1 42K      -0.061400
      3 N3          -3.6650     3.3260     0.0150 nc         1 42K      -0.154400
      4 N4          -2.8980     2.2330     0.0160 nd         1 42K      -0.213400
      5 N6           0.0850    -1.3180     0.0200 nu         1 42K      -0.622300
      6 N7           6.1710     0.5240    -1.5270 n8         1 42K      -1.001100
      7 OAC          6.6680    -0.5070     0.6530 o          1 42K      -0.546000
      8 OAD          5.8940     1.9340     0.4440 o          1 42K      -0.546000
      9 CAE          2.4580    -1.8040     0.0330 ca         1 42K      -0.171500
     10 CAF          1.7240     0.5080     0.0390 ca         1 42K      -0.171500
     11 CAG          3.7990    -1.3850     0.0440 ca         1 42K       0.022000
     12 CAH          3.0610     0.9390     0.0490 ca         1 42K       0.022000
     13 CAI         -6.1560     0.6890    -0.0100 ca         1 42K      -0.078000
     14 CAJ         -5.8970    -0.7040    -0.0140 ca         1 42K      -0.098000
     15 CAQ          1.4140    -0.8650     0.0310 ca         1 42K       0.364000
     16 CAR          4.1030    -0.0090     0.0510 ca         1 42K      -0.311500
     17 CAS         -2.6290    -2.4420    -0.0010 c          1 42K       0.464700
     18 CAT         -2.2410    -0.9870     0.0070 cc         1 42K       0.271900
     19 CAU         -5.0500     1.5680    -0.0000 ca         1 42K      -0.107200
     20 CAV         -4.5520    -1.1220    -0.0080 ca         1 42K       0.030600
     21 CAW         -3.7550     1.1460     0.0060 ca         1 42K       0.076400
     22 CAX         -3.4880    -0.2270     0.0020 ca         1 42K      -0.081900
     23 SAY          5.8130     0.5250     0.0680 sy         1 42K       1.130600
     24 H1          -4.5690    -3.2500    -0.0160 hn         1 42K       0.344500
     25 H2          -5.7690     3.5990     0.0030 hn         1 42K       0.384000
     26 H4           6.5660     1.4550    -1.6360 hn         1 42K       0.470500
     27 H5           5.2520     0.5970    -1.9550 hn         1 42K       0.470500
     28 H6           2.2350    -2.8670     0.0260 ha         1 42K       0.139000
     29 H7           0.9300     1.2480     0.0380 ha         1 42K       0.139000
     30 H8           4.5940    -2.1300     0.0440 ha         1 42K       0.139000
     31 H9           3.2770     2.0070     0.0580 ha         1 42K       0.139000
     32 H10         -7.1770     1.0670    -0.0150 ha         1 42K       0.129000
     33 H11         -6.7100    -1.4270    -0.0220 ha         1 42K       0.127000
     34 H3          -0.0110    -2.3440     0.0150 hn         1 42K       0.527000
     35 N5          -1.0210    -0.5070     0.0160 n2         1 42K      -0.286400
     36 OAB         -1.9350    -3.4540    -0.0010 o          1 42K      -0.554000
@<TRIPOS>BOND
     1     1    17 1   
     2     1    20 1   
     3     1    24 1   
     4     2     3 1   
     5     2    19 1   
     6     2    25 1   
     7     3     4 2   
     8     4    21 1   
     9     5    15 1   
    10     5    34 1   
    11     5    35 1   
    12     6    23 1   
    13     6    26 1   
    14     6    27 1   
    15     7    23 2   
    16     8    23 2   
    17     9    11 ar  
    18     9    15 ar  
    19     9    28 1   
    20    10    12 ar  
    21    10    15 ar  
    22    10    29 1   
    23    11    16 ar  
    24    11    30 1   
    25    12    16 ar  
    26    12    31 1   
    27    13    14 ar  
    28    13    19 ar  
    29    13    32 1   
    30    14    20 ar  
    31    14    33 1   
    32    16    23 1   
    33    17    18 1   
    34    17    36 2   
    35    18    22 1   
    36    18    35 2   
    37    19    21 ar  
    38    20    22 ar  
    39    21    22 ar  
@<TRIPOS>SUBSTRUCTURE
     1 42K         1 TEMP              0 ****  ****    0 ROOT
