@<TRIPOS>MOLECULE
42K
   36    39     1     0     0
SMALL
abcg2


@<TRIPOS>ATOM
      1 N1          -3.9640    -2.4130    -0.0290 ns         1 42K      -0.389100
      2 N2          -4.9230     2.8920     0.0690 na         1 42K      -0.061400
      3 N3          -3.6630     3.2820     0.0750 nc         1 42K      -0.154400
      4 N4          -2.8930     2.2560     0.0560 nd         1 42K      -0.213400
      5 N6           0.0550    -1.3520    -0.0130 nu         1 42K      -0.622300
      6 N7           6.0970     0.3500    -1.4860 n8         1 42K      -1.001100
      7 OAC          6.4130    -0.2030     0.9100 o          1 42K      -0.546000
      8 OAD          5.5780     2.0900     0.3690 o          1 42K      -0.546000
      9 CAE          2.4040    -1.7460    -0.0120 ca         1 42K      -0.171500
     10 CAF          1.5860     0.5310     0.0180 ca         1 42K      -0.171500
     11 CAG          3.7020    -1.2840     0.0010 ca         1 42K       0.022000
     12 CAH          2.8900     0.9890     0.0330 ca         1 42K       0.022000
     13 CAI         -6.0900     0.6460     0.0280 ca         1 42K      -0.078000
     14 CAJ         -5.7890    -0.7000     0.0040 ca         1 42K      -0.098000
     15 CAQ          1.3370    -0.8420    -0.0030 ca         1 42K       0.364000
     16 CAR          3.9450     0.0860     0.0240 ca         1 42K      -0.311500
     17 CAS         -2.6060    -2.4430    -0.0300 c          1 42K       0.464700
     18 CAT         -2.1740    -1.0160    -0.0050 cc         1 42K       0.271900
     19 CAU         -5.0160     1.5420     0.0440 ca         1 42K      -0.107200
     20 CAV         -4.4490    -1.1070    -0.0050 ca         1 42K       0.030600
     21 CAW         -3.6750     1.1420     0.0350 ca         1 42K       0.076400
     22 CAX         -3.3780    -0.2230     0.0100 ca         1 42K      -0.081900
     23 SAY          5.6070     0.6650     0.0620 sy         1 42K       1.130600
     24 H1          -4.5450    -3.2380    -0.0450 hn         1 42K       0.344500
     25 H2          -5.6600     3.5820     0.0830 hn         1 42K       0.384000
     26 H4           7.1100     0.3780    -1.5650 hn         1 42K       0.470500
     27 H5           5.6800     0.9810    -2.1630 hn         1 42K       0.470500
     28 H6           2.2150    -2.8120    -0.0250 ha         1 42K       0.139000
     29 H7           0.7680     1.2370     0.0260 ha         1 42K       0.139000
     30 H8           4.5170    -1.9950    -0.0040 ha         1 42K       0.139000
     31 H9           3.0730     2.0550     0.0540 ha         1 42K       0.139000
     32 H10         -7.1160     0.9870     0.0360 ha         1 42K       0.129000
     33 H11         -6.5820    -1.4350    -0.0090 ha         1 42K       0.127000
     34 H3          -0.0770    -2.3600    -0.0290 hn         1 42K       0.527000
     35 N5          -0.9740    -0.5510     0.0020 n2         1 42K      -0.286400
     36 OAB         -1.8880    -3.4300    -0.0480 o          1 42K      -0.554000
@<TRIPOS>BOND
     1     1    17 1   
     2     1    20 1   
     3     1    24 1   
     4     2     3 1   
     5     2    19 1   
     6     2    25 1   
     7     3     4 2   
     8     4    21 1   
     9     5    15 1   
    10     5    34 1   
    11     5    35 1   
    12     6    23 1   
    13     6    26 1   
    14     6    27 1   
    15     7    23 2   
    16     8    23 2   
    17     9    11 ar  
    18     9    15 ar  
    19     9    28 1   
    20    10    12 ar  
    21    10    15 ar  
    22    10    29 1   
    23    11    16 ar  
    24    11    30 1   
    25    12    16 ar  
    26    12    31 1   
    27    13    14 ar  
    28    13    19 ar  
    29    13    32 1   
    30    14    20 ar  
    31    14    33 1   
    32    16    23 1   
    33    17    18 1   
    34    17    36 2   
    35    18    22 1   
    36    18    35 2   
    37    19    21 ar  
    38    20    22 ar  
    39    21    22 ar  
@<TRIPOS>SUBSTRUCTURE
     1 42K         1 TEMP              0 ****  ****    0 ROOT
