@<TRIPOS>MOLECULE
42L
   40    42     1     0     0
SMALL
No Charge or Current Charge


@<TRIPOS>ATOM
      1 F            5.3280    -0.1700     0.3420 f          1 42L      -0.181000
      2 C13          3.9910    -0.3430     0.2580 ca         1 42L       0.170000
      3 C12          3.4450    -1.0520    -0.8210 ca         1 42L      -0.154000
      4 C11          2.0540    -1.2310    -0.9110 ca         1 42L      -0.073500
      5 C14          3.1540     0.1910     1.2470 ca         1 42L      -0.154000
      6 C15          1.7620     0.0140     1.1610 ca         1 42L      -0.073500
      7 C10          1.1980    -0.7040     0.0800 ca         1 42L      -0.099300
      8 C6          -0.3250    -0.9080    -0.0610 c6         1 42L       0.007600
      9 C7          -1.0640     0.2610    -0.7890 c6         1 42L      -0.101700
     10 C8          -0.5600     1.6690    -0.3990 c          1 42L       0.605100
     11 O1           0.6150     2.0140    -1.0240 os         1 42L      -0.454100
     12 C9           1.1930     3.2970    -0.7280 c3         1 42L       0.152900
     13 O           -1.1720     2.4310     0.3390 o          1 42L      -0.469000
     14 C1          -2.6180     0.1000    -0.7510 c5         1 42L       0.164500
     15 C5          -1.0530    -1.2480     1.2690 c6         1 42L      -0.059400
     16 C4          -2.6000    -1.3230     1.0960 c5         1 42L       0.159500
     17 C3          -3.1030    -2.2280    -0.0750 c5         1 42L      -0.112400
     18 C2          -3.1350    -1.2650    -1.3150 c5         1 42L      -0.108400
     19 N           -3.0710     0.0170     0.6650 n3         1 42L      -0.686600
     20 C           -4.5140     0.2890     0.8900 c3         1 42L       0.147100
     21 H1           4.1000    -1.4600    -1.5870 ha         1 42L       0.131000
     22 H2           1.6410    -1.7770    -1.7570 ha         1 42L       0.120500
     23 H3           3.5830     0.7460     2.0770 ha         1 42L       0.131000
     24 H4           1.1320     0.4540     1.9290 ha         1 42L       0.120500
     25 H5          -0.4470    -1.7960    -0.6960 hc         1 42L       0.049700
     26 H6          -0.7230     0.1500    -1.8260 hc         1 42L       0.073700
     27 H7           2.1260     3.4330    -1.2890 h1         1 42L       0.045700
     28 H8           0.5090     4.1100    -1.0040 h1         1 42L       0.045700
     29 H9           1.4250     3.3840     0.3420 h1         1 42L       0.045700
     30 H10         -3.0660     0.9500    -1.2870 h1         1 42L       0.073700
     31 H11         -0.6800    -2.2050     1.6590 hc         1 42L       0.059200
     32 H12         -0.8400    -0.4970     2.0390 hc         1 42L       0.059200
     33 H13         -3.0360    -1.6270     2.0590 h1         1 42L       0.067700
     34 H14         -2.4540    -3.0970    -0.2330 hc         1 42L       0.049200
     35 H15         -4.1040    -2.6220     0.1360 hc         1 42L       0.049200
     36 H16         -4.1550    -1.1670    -1.7050 hc         1 42L       0.049200
     37 H17         -2.5190    -1.6300    -2.1450 hc         1 42L       0.049200
     38 H19         -5.1560    -0.4230     0.3560 h1         1 42L       0.033033
     39 H20         -4.7520     0.2240     1.9590 h1         1 42L       0.033033
     40 H21         -4.7690     1.3010     0.5480 h1         1 42L       0.033033
@<TRIPOS>BOND
     1     1     2 1   
     2     2     3 ar  
     3     2     5 ar  
     4     3     4 ar  
     5     3    21 1   
     6     4     7 ar  
     7     4    22 1   
     8     5     6 ar  
     9     5    23 1   
    10     6     7 ar  
    11     6    24 1   
    12     7     8 1   
    13     8     9 1   
    14     8    15 1   
    15     8    25 1   
    16     9    10 1   
    17     9    14 1   
    18     9    26 1   
    19    10    11 1   
    20    10    13 2   
    21    11    12 1   
    22    12    27 1   
    23    12    28 1   
    24    12    29 1   
    25    14    18 1   
    26    14    19 1   
    27    14    30 1   
    28    15    16 1   
    29    15    31 1   
    30    15    32 1   
    31    16    17 1   
    32    16    19 1   
    33    16    33 1   
    34    17    18 1   
    35    17    34 1   
    36    17    35 1   
    37    18    36 1   
    38    18    37 1   
    39    19    20 1   
    40    20    38 1   
    41    20    39 1   
    42    20    40 1   
@<TRIPOS>SUBSTRUCTURE
     1 42L         1 TEMP              0 ****  ****    0 ROOT
