@<TRIPOS>MOLECULE
42L
   40    42     1     0     0
SMALL
bcc


@<TRIPOS>ATOM
      1 F            5.3510    -0.6900     0.5680 f          1 42L      -0.145900
      2 C13          4.0120    -0.7600     0.4660 ca         1 42L       0.134900
      3 C12          3.4520    -1.2450    -0.7000 ca         1 42L      -0.172000
      4 C11          2.0690    -1.3120    -0.7850 ca         1 42L      -0.091500
      5 C14          3.2350    -0.3500     1.5300 ca         1 42L      -0.172000
      6 C15          1.8530    -0.4210     1.4170 ca         1 42L      -0.091500
      7 C10          1.2440    -0.9000     0.2610 ca         1 42L      -0.099300
      8 C6          -0.2540    -0.9840     0.0770 c6         1 42L       0.007600
      9 C7          -0.8020     0.1720    -0.7870 c6         1 42L      -0.101700
     10 C8          -0.3780     1.5390    -0.3100 c          1 42L       0.654100
     11 O1          -0.2230     2.3720    -1.3370 os         1 42L      -0.430900
     12 C9           0.1340     3.7210    -1.0410 c3         1 42L       0.129700
     13 O           -0.2170     1.8750     0.8350 o          1 42L      -0.518000
     14 C1          -2.3430     0.1130    -0.8350 c5         1 42L       0.164500
     15 C5          -1.0680    -1.1770     1.3570 c6         1 42L      -0.059400
     16 C4          -2.5650    -1.1010     1.0650 c5         1 42L       0.159500
     17 C3          -2.9900    -2.0890    -0.0460 c5         1 42L      -0.112400
     18 C2          -2.8300    -1.2670    -1.3390 c5         1 42L      -0.108400
     19 N           -2.8510     0.2270     0.5240 n3         1 42L      -0.686600
     20 C           -4.2550     0.5810     0.5760 c3         1 42L       0.147100
     21 H1           4.0770    -1.5710    -1.5200 ha         1 42L       0.149000
     22 H2           1.6230    -1.7010    -1.6930 ha         1 42L       0.138500
     23 H3           3.6970     0.0250     2.4350 ha         1 42L       0.149000
     24 H4           1.2560    -0.0950     2.2580 ha         1 42L       0.138500
     25 H5          -0.4140    -1.8780    -0.5350 hc         1 42L       0.049700
     26 H6          -0.4390     0.0440    -1.8110 hc         1 42L       0.073700
     27 H7           0.2620     4.2150    -2.0010 h1         1 42L       0.045700
     28 H8          -0.6500     4.2280    -0.4780 h1         1 42L       0.045700
     29 H9           1.0680     3.7740    -0.4820 h1         1 42L       0.045700
     30 H10         -2.7190     0.9300    -1.4560 h1         1 42L       0.073700
     31 H11         -0.8210    -2.1480     1.7930 hc         1 42L       0.059200
     32 H12         -0.8340    -0.4150     2.1010 hc         1 42L       0.059200
     33 H13         -3.1210    -1.2570     1.9920 h1         1 42L       0.067700
     34 H14         -2.3780    -2.9940    -0.0430 hc         1 42L       0.049200
     35 H15         -4.0220    -2.4110     0.0930 hc         1 42L       0.049200
     36 H16         -3.7810    -1.1600    -1.8610 hc         1 42L       0.049200
     37 H17         -2.1340    -1.7180    -2.0490 hc         1 42L       0.049200
     38 H19         -4.9280    -0.1010     0.0380 h1         1 42L       0.033033
     39 H20         -4.5830     0.6140     1.6160 h1         1 42L       0.033033
     40 H21         -4.3960     1.5780     0.1560 h1         1 42L       0.033033
@<TRIPOS>BOND
     1     1     2 1   
     2     2     3 ar  
     3     2     5 ar  
     4     3     4 ar  
     5     3    21 1   
     6     4     7 ar  
     7     4    22 1   
     8     5     6 ar  
     9     5    23 1   
    10     6     7 ar  
    11     6    24 1   
    12     7     8 1   
    13     8     9 1   
    14     8    15 1   
    15     8    25 1   
    16     9    10 1   
    17     9    14 1   
    18     9    26 1   
    19    10    11 1   
    20    10    13 2   
    21    11    12 1   
    22    12    27 1   
    23    12    28 1   
    24    12    29 1   
    25    14    18 1   
    26    14    19 1   
    27    14    30 1   
    28    15    16 1   
    29    15    31 1   
    30    15    32 1   
    31    16    17 1   
    32    16    19 1   
    33    16    33 1   
    34    17    18 1   
    35    17    34 1   
    36    17    35 1   
    37    18    36 1   
    38    18    37 1   
    39    19    20 1   
    40    20    38 1   
    41    20    39 1   
    42    20    40 1   
@<TRIPOS>SUBSTRUCTURE
     1 42L         1 TEMP              0 ****  ****    0 ROOT
