@<TRIPOS>MOLECULE
42O
   45    49     1     0     0
SMALL
No Charge or Current Charge


@<TRIPOS>ATOM
      1 O01          9.5010     4.8370    16.7530 o          1 42O      -0.700000
      2 C02          8.8230     5.8560    16.7630 c          1 42O       0.723000
      3 C04          7.2760     5.7620    16.8820 c5         1 42O      -0.067300
      4 C05          6.8510     6.1990    18.3250 c5         1 42O       0.070600
      5 C07          6.5310     3.7360    17.9780 cc         1 42O       0.244200
      6 C08          5.9960     2.4610    18.1190 cd         1 42O      -0.199200
      7 C09          5.7820     1.8000    19.4500 cx         1 42O      -0.049500
      8 C10          6.3680     0.4350    19.7560 cx         1 42O      -0.134400
      9 C11          6.9040     1.6490    20.4590 cx         1 42O      -0.134400
     10 C12          5.6260     1.7660    16.8880 cd         1 42O       0.024800
     11 C13          4.9580     0.3970    16.9000 c3         1 42O      -0.000900
     12 C14          4.1830     0.0160    15.6320 ca         1 42O      -0.047300
     13 C15          2.8010     0.2920    15.5970 ca         1 42O      -0.118000
     14 C16          2.0260    -0.0460    14.4780 ca         1 42O      -0.109000
     15 C17          2.6240    -0.6670    13.3740 ca         1 42O      -0.108000
     16 C18          4.0020    -0.9460    13.3820 ca         1 42O      -0.036000
     17 C19          4.5860    -1.5620    12.2580 ca         1 42O      -0.112000
     18 C20          5.9610    -1.8390    12.2370 ca         1 42O      -0.104000
     19 C21          6.7580    -1.4970    13.3390 ca         1 42O      -0.109000
     20 O03          9.3220     6.9610    16.6080 o          1 42O      -0.700000
     21 S06          6.8930     4.6790    19.4090 ss         1 42O      -0.337600
     22 C22          6.1840    -0.8840    14.4660 ca         1 42O      -0.078000
     23 C23          4.7960    -0.6050    14.5070 ca         1 42O      -0.026000
     24 C24          5.9070     2.4220    15.6950 cc         1 42O      -0.333200
     25 C25          6.4880     3.7630    15.5720 c          1 42O       0.573200
     26 O26          6.7130     4.2960    14.4940 o          1 42O      -0.579000
     27 N27          6.7210     4.3860    16.7940 n          1 42O      -0.227000
     28 H041         6.8460     6.4260    16.1230 h1         1 42O       0.094700
     29 H052         7.4870     6.9940    18.7370 h1         1 42O       0.074700
     30 H051         5.8190     6.5760    18.3110 h1         1 42O       0.074700
     31 H091         4.7950     2.0040    19.8590 hc         1 42O       0.063700
     32 H101         5.7590    -0.2590    20.3310 hc         1 42O       0.070700
     33 H102         7.0220    -0.0320    19.0240 hc         1 42O       0.070700
     34 H112         7.8990     1.9850    20.1800 hc         1 42O       0.070700
     35 H111         6.6570     1.7790    21.5100 hc         1 42O       0.070700
     36 H131         4.2580     0.3550    17.7430 hc         1 42O       0.055700
     37 H132         5.6960    -0.3780    17.1300 hc         1 42O       0.055700
     38 H151         2.3200     0.7730    16.4470 ha         1 42O       0.108000
     39 H161         0.9600     0.1720    14.4680 ha         1 42O       0.103000
     40 H171         2.0160    -0.9270    12.5110 ha         1 42O       0.104000
     41 H191         3.9750    -1.8240    11.3980 ha         1 42O       0.102000
     42 H201         6.4080    -2.3130    11.3670 ha         1 42O       0.105000
     43 H211         7.8260    -1.7050    13.3210 ha         1 42O       0.117000
     44 H221         6.8390    -0.6230    15.2920 ha         1 42O       0.131000
     45 H241         5.6860     1.9720    14.7370 ha         1 42O       0.200000
@<TRIPOS>BOND
     1     1     2 1   
     2     2     3 1   
     3     2    20 1   
     4     3     4 1   
     5     3    27 1   
     6     3    28 1   
     7     4    21 1   
     8     4    29 1   
     9     4    30 1   
    10     5     6 2   
    11     5    21 1   
    12     5    27 1   
    13     6     7 1   
    14     6    10 1   
    15     7     8 1   
    16     7     9 1   
    17     7    31 1   
    18     8     9 1   
    19     8    32 1   
    20     8    33 1   
    21     9    34 1   
    22     9    35 1   
    23    10    11 1   
    24    10    24 2   
    25    11    12 1   
    26    11    36 1   
    27    11    37 1   
    28    12    13 ar  
    29    12    23 ar  
    30    13    14 ar  
    31    13    38 1   
    32    14    15 ar  
    33    14    39 1   
    34    15    16 ar  
    35    15    40 1   
    36    16    17 ar  
    37    16    23 ar  
    38    17    18 ar  
    39    17    41 1   
    40    18    19 ar  
    41    18    42 1   
    42    19    22 ar  
    43    19    43 1   
    44    22    23 ar  
    45    22    44 1   
    46    24    25 1   
    47    24    45 1   
    48    25    26 2   
    49    25    27 1   
@<TRIPOS>SUBSTRUCTURE
     1 42O         1 TEMP              0 ****  ****    0 ROOT
