@<TRIPOS>MOLECULE
42O
   45    49     1     0     0
SMALL
abcg2


@<TRIPOS>ATOM
      1 O01          8.9560     4.1000    15.9230 o          1 42O      -0.700000
      2 C02          8.7360     5.2620    16.3230 c          1 42O       0.723000
      3 C04          7.3120     5.5870    16.8860 c5         1 42O      -0.067300
      4 C05          7.3540     6.0320    18.3410 c5         1 42O       0.070600
      5 C07          6.4660     3.6530    18.0010 cc         1 42O       0.244200
      6 C08          5.8690     2.4200    18.0770 cd         1 42O      -0.199200
      7 C09          5.9170     1.6090    19.3260 cx         1 42O      -0.049500
      8 C10          6.6040     0.2640    19.3490 cx         1 42O      -0.134400
      9 C11          7.2000     1.4180    20.0980 cx         1 42O      -0.134400
     10 C12          5.1400     1.9960    16.9230 cd         1 42O       0.024800
     11 C13          4.3670     0.6930    16.9880 c3         1 42O      -0.000900
     12 C14          3.8600     0.1710    15.6720 ca         1 42O      -0.047300
     13 C15          2.5230     0.2580    15.3620 ca         1 42O      -0.118000
     14 C16          2.0150    -0.2140    14.1330 ca         1 42O      -0.109000
     15 C17          2.8570    -0.7740    13.2100 ca         1 42O      -0.108000
     16 C18          4.2430    -0.8890    13.4800 ca         1 42O      -0.036000
     17 C19          5.1330    -1.4620    12.5380 ca         1 42O      -0.112000
     18 C20          6.4740    -1.5630    12.8050 ca         1 42O      -0.104000
     19 C21          6.9850    -1.0950    14.0350 ca         1 42O      -0.109000
     20 O03          9.5230     6.2370    16.3310 o          1 42O      -0.700000
     21 S06          7.3220     4.4740    19.3030 ss         1 42O      -0.337600
     22 C22          6.1490    -0.5370    14.9690 ca         1 42O      -0.078000
     23 C23          4.7570    -0.4130    14.7260 ca         1 42O      -0.026000
     24 C24          5.0990     2.7790    15.8000 cc         1 42O      -0.333200
     25 C25          5.7820     4.0290    15.7040 c          1 42O       0.573200
     26 O26          5.8150     4.7590    14.6970 o          1 42O      -0.579000
     27 N27          6.4370     4.4150    16.8690 n          1 42O      -0.227000
     28 H041         6.8740     6.3580    16.2580 h1         1 42O       0.094700
     29 H052         8.2660     6.5750    18.5670 h1         1 42O       0.074700
     30 H051         6.4860     6.6290    18.6120 h1         1 42O       0.074700
     31 H091         5.0190     1.6620    19.9360 hc         1 42O       0.063700
     32 H101         6.1330    -0.5340    19.9060 hc         1 42O       0.070700
     33 H102         7.1100    -0.0490    18.4440 hc         1 42O       0.070700
     34 H112         8.1040     1.8510    19.6920 hc         1 42O       0.070700
     35 H111         7.1410     1.4260    21.1780 hc         1 42O       0.070700
     36 H131         3.5200     0.8470    17.6620 hc         1 42O       0.055700
     37 H132         4.9900    -0.0580    17.4730 hc         1 42O       0.055700
     38 H151         1.8430     0.7020    16.0790 ha         1 42O       0.108000
     39 H161         0.9560    -0.1280    13.9260 ha         1 42O       0.103000
     40 H171         2.4790    -1.1380    12.2610 ha         1 42O       0.104000
     41 H191         4.7310    -1.8180    11.5970 ha         1 42O       0.102000
     42 H201         7.1450    -2.0000    12.0760 ha         1 42O       0.105000
     43 H211         8.0440    -1.1780    14.2410 ha         1 42O       0.117000
     44 H221         6.5610    -0.1810    15.9030 ha         1 42O       0.131000
     45 H241         4.5520     2.4640    14.9240 ha         1 42O       0.200000
@<TRIPOS>BOND
     1     1     2 1   
     2     2     3 1   
     3     2    20 1   
     4     3     4 1   
     5     3    27 1   
     6     3    28 1   
     7     4    21 1   
     8     4    29 1   
     9     4    30 1   
    10     5     6 2   
    11     5    21 1   
    12     5    27 1   
    13     6     7 1   
    14     6    10 1   
    15     7     8 1   
    16     7     9 1   
    17     7    31 1   
    18     8     9 1   
    19     8    32 1   
    20     8    33 1   
    21     9    34 1   
    22     9    35 1   
    23    10    11 1   
    24    10    24 2   
    25    11    12 1   
    26    11    36 1   
    27    11    37 1   
    28    12    13 ar  
    29    12    23 ar  
    30    13    14 ar  
    31    13    38 1   
    32    14    15 ar  
    33    14    39 1   
    34    15    16 ar  
    35    15    40 1   
    36    16    17 ar  
    37    16    23 ar  
    38    17    18 ar  
    39    17    41 1   
    40    18    19 ar  
    41    18    42 1   
    42    19    22 ar  
    43    19    43 1   
    44    22    23 ar  
    45    22    44 1   
    46    24    25 1   
    47    24    45 1   
    48    25    26 2   
    49    25    27 1   
@<TRIPOS>SUBSTRUCTURE
     1 42O         1 TEMP              0 ****  ****    0 ROOT
