@<TRIPOS>MOLECULE
42P
   58    61     1     0     0
SMALL
No Charge or Current Charge


@<TRIPOS>ATOM
      1 C01         -0.0410     0.0100     0.3750 ca         1 42P       0.479900
      2 N02         -1.2880    -0.4200     0.6140 nb         1 42P      -0.351000
      3 C03         -2.2740     0.4200     0.3000 ca         1 42P       0.459900
      4 N04         -2.1550     1.6410    -0.2350 nb         1 42P      -0.292000
      5 C05         -0.9040     2.0710    -0.4550 ca         1 42P       0.310000
      6 C06          0.2230     1.2900    -0.1350 ca         1 42P      -0.376900
      7 N07          0.9870    -0.8610     0.7060 nu         1 42P      -0.901100
      8 N08         -3.5460    -0.0560     0.5510 nu         1 42P      -0.914100
      9 Cl9         -0.7800     3.6460    -1.2320 cl         1 42P      -0.159000
     10 C10          1.5760     1.7660    -0.3910 cc         1 42P       0.527800
     11 C11          0.8420    -2.1760     0.0090 c5         1 42P       0.233500
     12 C12          2.1960    -2.4220    -0.7240 c5         1 42P       0.104300
     13 C13          2.1410    -3.9720    -0.9410 c5         1 42P       0.139300
     14 C14          1.2770    -4.5100     0.2630 c5         1 42P      -0.068700
     15 C15          0.9680    -3.2390     1.1210 c5         1 42P      -0.079400
     16 O16          2.3380    -1.6980    -1.9590 oh         1 42P      -0.642000
     17 O17          1.5210    -4.2660    -2.1910 oh         1 42P      -0.653000
     18 C18          1.9430    -5.6670     1.0430 c3         1 42P       0.168600
     19 O19          1.0800    -6.1270     2.0890 oh         1 42P      -0.657000
     20 C20         -4.8230     0.6350     0.3080 c3         1 42P       0.241800
     21 C21         -6.0050    -0.2540     0.7300 c3         1 42P      -0.104400
     22 C22         -7.3640     0.4280     0.4930 c3         1 42P       0.162600
     23 O23         -8.3890    -0.4830     0.9190 os         1 42P      -0.454000
     24 C24         -9.7290     0.0130     0.7600 c3         1 42P       0.146900
     25 S25          2.1430     3.3180     0.2810 ss         1 42P       0.066800
     26 C26          3.7240     2.8550    -0.3230 ca         1 42P      -0.212000
     27 C27          3.7060     1.6210    -0.9390 ca         1 42P       0.122400
     28 N28          2.4830     0.9650    -0.9730 nd         1 42P      -0.633100
     29 C29          4.8990     3.6150    -0.2150 ca         1 42P      -0.063000
     30 C30          6.0890     3.0920    -0.7540 ca         1 42P      -0.111000
     31 C31          6.0850     1.8300    -1.3850 ca         1 42P      -0.106000
     32 C32          4.8880     1.0900    -1.4770 ca         1 42P      -0.073000
     33 H1           1.8910    -0.3950     0.6130 hn         1 42P       0.544000
     34 H2          -3.5790    -0.9880     0.9630 hn         1 42P       0.512000
     35 H3          -0.0380    -2.3110    -0.6420 h1         1 42P       0.111700
     36 H4           3.0420    -2.1840    -0.0620 h1         1 42P       0.040700
     37 H5           3.1590    -4.3870    -0.9200 h1         1 42P       0.037700
     38 H6           0.3340    -4.9200    -0.1200 hc         1 42P       0.089700
     39 H7           1.7820    -3.0190     1.8240 hc         1 42P       0.062200
     40 H8           0.0480    -3.3410     1.7060 hc         1 42P       0.062200
     41 H9           2.3840    -0.7360    -1.7170 ho         1 42P       0.444000
     42 H10          1.6790    -3.4480    -2.7220 ho         1 42P       0.458000
     43 H11          2.1610    -6.4870     0.3450 h1         1 42P       0.016700
     44 H12          2.8960    -5.3180     1.4610 h1         1 42P       0.016700
     45 H13          1.5490    -6.8610     2.5450 ho         1 42P       0.444000
     46 H14         -4.8560     1.5750     0.8760 h1         1 42P       0.056200
     47 H15         -4.9190     0.8820    -0.7590 h1         1 42P       0.056200
     48 H16         -5.9730    -1.1940     0.1660 hc         1 42P       0.060200
     49 H17         -5.9110    -0.5030     1.7940 hc         1 42P       0.060200
     50 H18         -7.4120     1.3630     1.0670 h1         1 42P       0.024200
     51 H19         -7.4750     0.6670    -0.5730 h1         1 42P       0.024200
     52 H20         -9.8780     0.9300     1.3450 h1         1 42P       0.029700
     53 H21         -9.9410     0.2340    -0.2940 h1         1 42P       0.029700
     54 H22        -10.4560    -0.7340     1.1050 h1         1 42P       0.029700
     55 H23          4.8920     4.5870     0.2750 ha         1 42P       0.123000
     56 H24          7.0130     3.6620    -0.6840 ha         1 42P       0.115000
     57 H25          7.0050     1.4270    -1.7990 ha         1 42P       0.115000
     58 H26          4.8810     0.1160    -1.9600 ha         1 42P       0.123000
@<TRIPOS>BOND
     1     1     2 ar  
     2     1     6 ar  
     3     1     7 1   
     4     2     3 ar  
     5     3     4 ar  
     6     3     8 1   
     7     4     5 ar  
     8     5     6 ar  
     9     5     9 1   
    10     6    10 1   
    11     7    11 1   
    12     7    33 1   
    13     8    20 1   
    14     8    34 1   
    15    10    25 1   
    16    10    28 2   
    17    11    12 1   
    18    11    15 1   
    19    11    35 1   
    20    12    13 1   
    21    12    16 1   
    22    12    36 1   
    23    13    14 1   
    24    13    17 1   
    25    13    37 1   
    26    14    15 1   
    27    14    18 1   
    28    14    38 1   
    29    15    39 1   
    30    15    40 1   
    31    16    41 1   
    32    17    42 1   
    33    18    19 1   
    34    18    43 1   
    35    18    44 1   
    36    19    45 1   
    37    20    21 1   
    38    20    46 1   
    39    20    47 1   
    40    21    22 1   
    41    21    48 1   
    42    21    49 1   
    43    22    23 1   
    44    22    50 1   
    45    22    51 1   
    46    23    24 1   
    47    24    52 1   
    48    24    53 1   
    49    24    54 1   
    50    25    26 1   
    51    26    27 ar  
    52    26    29 ar  
    53    27    28 1   
    54    27    32 ar  
    55    29    30 ar  
    56    29    55 1   
    57    30    31 ar  
    58    30    56 1   
    59    31    32 ar  
    60    31    57 1   
    61    32    58 1   
@<TRIPOS>SUBSTRUCTURE
     1 42P         1 TEMP              0 ****  ****    0 ROOT
