@<TRIPOS>MOLECULE
42P
   58    61     1     0     0
SMALL
bcc


@<TRIPOS>ATOM
      1 C01         -0.1280    -0.1290     0.0540 ca         1 42P       0.808200
      2 N02         -1.3840    -0.5550     0.1050 nb         1 42P      -0.877000
      3 C03         -2.3600     0.3390     0.1310 ca         1 42P       0.985900
      4 N04         -2.1910     1.6700     0.1010 nb         1 42P      -0.818000
      5 C05         -0.9560     2.0870     0.0490 ca         1 42P       0.638300
      6 C06          0.1890     1.2920     0.0230 ca         1 42P      -0.507500
      7 N07          0.8360    -1.0450     0.0480 nu         1 42P      -0.845900
      8 N08         -3.6140    -0.1150     0.1900 nu         1 42P      -0.858900
      9 CL9         -0.8420     3.8170     0.0120 cl         1 42P      -0.159000
     10 C10          1.5640     1.7580    -0.0300 cc         1 42P       0.527800
     11 C11          0.6420    -2.4710     0.0330 c5         1 42P       0.233500
     12 C12          1.0650    -3.1190    -1.2820 c5         1 42P       0.081100
     13 C13          1.1120    -4.6060    -0.9190 c5         1 42P       0.116100
     14 C14          1.7510    -4.6170     0.4780 c5         1 42P      -0.068700
     15 C15          1.5150    -3.2010     1.0590 c5         1 42P      -0.079400
     16 O16          0.1720    -2.8010    -2.3150 oh         1 42P      -0.579800
     17 O17         -0.1910    -5.1360    -0.8360 oh         1 42P      -0.590800
     18 C18          3.2240    -4.9770     0.3990 c3         1 42P       0.145400
     19 O19          3.7700    -4.9380     1.6970 oh         1 42P      -0.594800
     20 C20         -4.7890     0.7270     0.2270 c3         1 42P       0.241800
     21 C21         -6.0430    -0.1320     0.2690 c3         1 42P      -0.104400
     22 C22         -7.2870     0.7350     0.3240 c3         1 42P       0.139400
     23 O23         -8.4220    -0.0920     0.3550 os         1 42P      -0.407600
     24 C24         -9.6180     0.6400     0.4350 c3         1 42P       0.123700
     25 S25          2.0570     3.4530    -0.0640 ss         1 42P      -0.060100
     26 C26          3.7130     2.9590    -0.1100 ca         1 42P      -0.085100
     27 C27          3.7840     1.5620    -0.0990 ca         1 42P       0.122400
     28 N28          2.5710     0.9350    -0.0540 nd         1 42P      -0.633100
     29 C29          4.8570     3.7480    -0.1530 ca         1 42P      -0.081000
     30 C30          6.0830     3.1070    -0.1840 ca         1 42P      -0.129000
     31 C31          6.1670     1.7090    -0.1730 ca         1 42P      -0.124000
     32 C32          5.0280     0.9280    -0.1310 ca         1 42P      -0.091000
     33 H1           1.7850    -0.6770     0.0020 hn         1 42P       0.488800
     34 H2          -3.7280    -1.1160     0.2080 hn         1 42P       0.456800
     35 H3          -0.4130    -2.6750     0.2120 h1         1 42P       0.111700
     36 H4           2.0870    -2.7890    -1.5200 h1         1 42P       0.040700
     37 H5           1.7140    -5.1740    -1.6450 h1         1 42P       0.037700
     38 H6           1.2490    -5.3740     1.0850 hc         1 42P       0.089700
     39 H7           2.4660    -2.6730     1.1730 hc         1 42P       0.062200
     40 H8           1.0520    -3.2210     2.0440 hc         1 42P       0.062200
     41 H9           0.5880    -3.0100    -3.1580 ho         1 42P       0.405000
     42 H10         -0.6840    -4.8090    -1.5970 ho         1 42P       0.419000
     43 H11          3.3260    -5.9750    -0.0490 h1         1 42P       0.016700
     44 H12          3.7410    -4.2750    -0.2730 h1         1 42P       0.016700
     45 H13          4.7180    -5.0800     1.6290 ho         1 42P       0.405000
     46 H14         -4.7560     1.3800     1.1040 h1         1 42P       0.056200
     47 H15         -4.8130     1.3780    -0.6510 h1         1 42P       0.056200
     48 H16         -6.0810    -0.7720    -0.6170 hc         1 42P       0.060200
     49 H17         -6.0150    -0.7840     1.1460 hc         1 42P       0.060200
     50 H18         -7.2520     1.3810     1.2140 h1         1 42P       0.024200
     51 H19         -7.3170     1.4030    -0.5490 h1         1 42P       0.024200
     52 H20         -9.6670     1.2490     1.3460 h1         1 42P       0.029700
     53 H21         -9.7480     1.3100    -0.4230 h1         1 42P       0.029700
     54 H22        -10.4470    -0.0660     0.4480 h1         1 42P       0.029700
     55 H23          4.7950     4.8280    -0.1620 ha         1 42P       0.141000
     56 H24          6.9900     3.6960    -0.2180 ha         1 42P       0.133000
     57 H25          7.1390     1.2340    -0.1990 ha         1 42P       0.133000
     58 H26          5.0870    -0.1520    -0.1220 ha         1 42P       0.141000
@<TRIPOS>BOND
     1     1     2 ar  
     2     1     6 ar  
     3     1     7 1   
     4     2     3 ar  
     5     3     4 ar  
     6     3     8 1   
     7     4     5 ar  
     8     5     6 ar  
     9     5     9 1   
    10     6    10 1   
    11     7    11 1   
    12     7    33 1   
    13     8    20 1   
    14     8    34 1   
    15    10    25 1   
    16    10    28 2   
    17    11    12 1   
    18    11    15 1   
    19    11    35 1   
    20    12    13 1   
    21    12    16 1   
    22    12    36 1   
    23    13    14 1   
    24    13    17 1   
    25    13    37 1   
    26    14    15 1   
    27    14    18 1   
    28    14    38 1   
    29    15    39 1   
    30    15    40 1   
    31    16    41 1   
    32    17    42 1   
    33    18    19 1   
    34    18    43 1   
    35    18    44 1   
    36    19    45 1   
    37    20    21 1   
    38    20    46 1   
    39    20    47 1   
    40    21    22 1   
    41    21    48 1   
    42    21    49 1   
    43    22    23 1   
    44    22    50 1   
    45    22    51 1   
    46    23    24 1   
    47    24    52 1   
    48    24    53 1   
    49    24    54 1   
    50    25    26 1   
    51    26    27 ar  
    52    26    29 ar  
    53    27    28 1   
    54    27    32 ar  
    55    29    30 ar  
    56    29    55 1   
    57    30    31 ar  
    58    30    56 1   
    59    31    32 ar  
    60    31    57 1   
    61    32    58 1   
@<TRIPOS>SUBSTRUCTURE
     1 42P         1 TEMP              0 ****  ****    0 ROOT
