@<TRIPOS>MOLECULE
42Q
   47    50     1     0     0
SMALL
No Charge or Current Charge


@<TRIPOS>ATOM
      1 C1          -7.4370    -0.0060    -1.0390 ca         1 42Q       0.113800
      2 N2          -7.1780    -0.2190    -2.3370 nb         1 42Q      -0.147000
      3 C3          -5.8650    -0.1010    -2.6560 ca         1 42Q       0.129900
      4 N4          -4.8430     0.1990    -1.8100 nb         1 42Q      -0.258000
      5 C5          -5.1530     0.3980    -0.5010 ca         1 42Q       0.362300
      6 C6          -6.4990     0.3010    -0.0980 ca         1 42Q      -0.177200
      7 N8          -7.1340     0.4520     1.1350 na         1 42Q      -0.049700
      8 C9          -8.5230     0.2410     0.9990 cc         1 42Q      -0.143100
      9 C10         -8.6980    -0.0420    -0.3520 cd         1 42Q      -0.356800
     10 C11         -6.4080     0.7800     2.3720 c3         1 42Q       0.065900
     11 O17         -4.1750     0.7280     0.4120 os         1 42Q      -0.375400
     12 C18         -2.8690     0.3120     0.2920 ca         1 42Q       0.131100
     13 C19         -1.8360     1.2240     0.5510 ca         1 42Q      -0.104000
     14 C20         -0.4910     0.8240     0.4550 ca         1 42Q      -0.072000
     15 C21         -0.1670    -0.5080     0.1050 ca         1 42Q      -0.061000
     16 C22         -1.2190    -1.4180    -0.1360 ca         1 42Q       0.145000
     17 C23         -2.5600    -1.0180    -0.0400 ca         1 42Q      -0.132000
     18 N27          1.1730    -0.9860    -0.0100 ns         1 42Q      -0.168000
     19 C28          2.4070    -0.3670     0.1330 c          1 42Q       0.668100
     20 N29          3.4500    -1.2580    -0.0740 ns         1 42Q      -0.161000
     21 C30          4.8650    -1.1040    -0.0440 ca         1 42Q      -0.007000
     22 O31          2.5540     0.8180     0.4070 o          1 42Q      -0.598100
     23 F34         -0.9410    -2.7010    -0.4620 f          1 42Q      -0.180000
     24 C35          5.6430    -2.2520    -0.2790 ca         1 42Q      -0.144000
     25 C36          7.0450    -2.1790    -0.2720 ca         1 42Q      -0.086000
     26 C37          7.6860    -0.9550    -0.0250 ca         1 42Q      -0.089000
     27 C38          6.9270     0.2090     0.2210 ca         1 42Q      -0.166300
     28 C39          5.5160     0.1260     0.2030 ca         1 42Q      -0.089000
     29 C44          7.6100     1.5590     0.4830 c3         1 42Q       0.355300
     30 F45          8.9020     1.4280     0.8630 f          1 42Q      -0.112667
     31 F46          7.6020     2.3350    -0.6240 f          1 42Q      -0.112667
     32 F47          6.9900     2.2580     1.4610 f          1 42Q      -0.112667
     33 H3          -5.6030    -0.2620    -3.7000 h5         1 42Q       0.050100
     34 H9          -9.2240     0.3060     1.8280 h4         1 42Q       0.217000
     35 H10         -9.6550    -0.2600    -0.8220 ha         1 42Q       0.223000
     36 H11         -5.9050     1.7480     2.2590 h1         1 42Q       0.057033
     37 H11A        -7.1110     0.8370     3.2120 h1         1 42Q       0.057033
     38 H11B        -5.6630     0.0020     2.5800 h1         1 42Q       0.057033
     39 H19         -2.0800     2.2480     0.8230 ha         1 42Q       0.136000
     40 H20          0.2770     1.5620     0.6600 ha         1 42Q       0.142000
     41 H23         -3.3510    -1.7400    -0.2190 ha         1 42Q       0.147000
     42 HN27         1.2290    -1.9700    -0.2420 hn         1 42Q       0.159000
     43 HN29         3.1520    -2.2000    -0.2880 hn         1 42Q       0.151000
     44 H35          5.1610    -3.2080    -0.4720 ha         1 42Q       0.114000
     45 H36          7.6360    -3.0730    -0.4590 ha         1 42Q       0.122000
     46 H37          8.7740    -0.9200    -0.0300 ha         1 42Q       0.135000
     47 H39          4.9440     1.0310     0.3790 ha         1 42Q       0.162000
@<TRIPOS>BOND
     1     1     2 ar  
     2     1     6 ar  
     3     1     9 1   
     4     2     3 ar  
     5     3     4 ar  
     6     3    33 1   
     7     4     5 ar  
     8     5     6 ar  
     9     5    11 1   
    10     6     7 1   
    11     7     8 1   
    12     7    10 1   
    13     8     9 2   
    14     8    34 1   
    15     9    35 1   
    16    10    36 1   
    17    10    37 1   
    18    10    38 1   
    19    11    12 1   
    20    12    13 ar  
    21    12    17 ar  
    22    13    14 ar  
    23    13    39 1   
    24    14    15 ar  
    25    14    40 1   
    26    15    16 ar  
    27    15    18 1   
    28    16    17 ar  
    29    16    23 1   
    30    17    41 1   
    31    18    19 1   
    32    18    42 1   
    33    19    20 1   
    34    19    22 2   
    35    20    21 1   
    36    20    43 1   
    37    21    24 ar  
    38    21    28 ar  
    39    24    25 ar  
    40    24    44 1   
    41    25    26 ar  
    42    25    45 1   
    43    26    27 ar  
    44    26    46 1   
    45    27    28 ar  
    46    27    29 1   
    47    28    47 1   
    48    29    30 1   
    49    29    31 1   
    50    29    32 1   
@<TRIPOS>SUBSTRUCTURE
     1 42Q         1 TEMP              0 ****  ****    0 ROOT
