@<TRIPOS>MOLECULE
42Q
   47    50     1     0     0
SMALL
bcc


@<TRIPOS>ATOM
      1 C1          -7.3380     0.1730    -0.7750 ca         1 42Q       0.442100
      2 N2          -7.1250    -0.3200    -2.0090 nb         1 42Q      -0.673000
      3 C3          -5.8740    -0.5820    -2.2880 ca         1 42Q       0.655900
      4 N4          -4.8080    -0.4130    -1.4880 nb         1 42Q      -0.784000
      5 C5          -5.0050     0.0620    -0.2860 ca         1 42Q       0.690600
      6 C6          -6.2890     0.3860     0.1410 ca         1 42Q      -0.307800
      7 N8          -6.8170     0.8870     1.2960 na         1 42Q      -0.020400
      8 C9          -8.1620     0.9900     1.1230 cc         1 42Q      -0.093100
      9 C10         -8.5340     0.5660    -0.1270 cd         1 42Q      -0.306800
     10 C11         -6.1040     1.2480     2.5020 c3         1 42Q       0.036600
     11 O17         -3.9750     0.2520     0.5520 os         1 42Q      -0.375400
     12 C18         -2.7110    -0.1360     0.1690 ca         1 42Q       0.131100
     13 C19         -1.7850     0.8370    -0.1590 ca         1 42Q      -0.122000
     14 C20         -0.4870     0.4660    -0.4770 ca         1 42Q      -0.090000
     15 C21         -0.0990    -0.8690    -0.4580 ca         1 42Q       0.031600
     16 C22         -1.0650    -1.8130    -0.1200 ca         1 42Q       0.109900
     17 C23         -2.3650    -1.4780     0.1830 ca         1 42Q      -0.150000
     18 N27          1.1930    -1.2920    -0.7870 ns         1 42Q      -0.494100
     19 C28          2.3240    -0.7390    -0.2480 c          1 42Q       0.802100
     20 N29          3.4680    -1.3560    -0.6760 ns         1 42Q      -0.487100
     21 C30          4.7810    -1.0590    -0.3220 ca         1 42Q       0.085600
     22 O31          2.3010     0.2040     0.5200 o          1 42Q      -0.598100
     23 F34         -0.7090    -3.1050    -0.0980 f          1 42Q      -0.144900
     24 C35          5.7530    -2.0140    -0.6390 ca         1 42Q      -0.162000
     25 C36          7.0840    -1.7900    -0.3490 ca         1 42Q      -0.104000
     26 C37          7.4870    -0.6140     0.2710 ca         1 42Q      -0.107000
     27 C38          6.5240     0.3330     0.5800 ca         1 42Q      -0.166300
     28 C39          5.1790     0.1270     0.2900 ca         1 42Q      -0.107000
     29 C44          6.8940     1.6210     1.2480 c3         1 42Q       0.719200
     30 F45          8.2120     1.7590     1.4170 f          1 42Q      -0.233967
     31 F46          6.4780     2.6850     0.5450 f          1 42Q      -0.233967
     32 F47          6.3330     1.7270     2.4620 f          1 42Q      -0.233967
     33 H3          -5.6590    -0.9810    -3.2730 h5         1 42Q       0.050100
     34 H9          -8.7780     1.3680     1.9240 h4         1 42Q       0.167000
     35 H10         -9.5360     0.5400    -0.5220 ha         1 42Q       0.173000
     36 H11         -5.3700     2.0260     2.3040 h1         1 42Q       0.057033
     37 H11A        -6.8220     1.6280     3.2230 h1         1 42Q       0.057033
     38 H11B        -5.6030     0.3850     2.9340 h1         1 42Q       0.057033
     39 H19         -2.0700     1.8800    -0.1710 ha         1 42Q       0.154000
     40 H20          0.2270     1.2280    -0.7530 ha         1 42Q       0.160000
     41 H23         -3.0820    -2.2470     0.4430 ha         1 42Q       0.165000
     42 HN27         1.2730    -2.1500    -1.3100 hn         1 42Q       0.325500
     43 HN29         3.3630    -2.1790    -1.2510 hn         1 42Q       0.317500
     44 H35          5.4570    -2.9400    -1.1190 ha         1 42Q       0.132000
     45 H36          7.8180    -2.5420    -0.6040 ha         1 42Q       0.140000
     46 H37          8.5320    -0.4580     0.4950 ha         1 42Q       0.153000
     47 H39          4.4490     0.8830     0.5310 ha         1 42Q       0.180000
@<TRIPOS>BOND
     1     1     2 ar  
     2     1     6 ar  
     3     1     9 1   
     4     2     3 ar  
     5     3     4 ar  
     6     3    33 1   
     7     4     5 ar  
     8     5     6 ar  
     9     5    11 1   
    10     6     7 1   
    11     7     8 1   
    12     7    10 1   
    13     8     9 2   
    14     8    34 1   
    15     9    35 1   
    16    10    36 1   
    17    10    37 1   
    18    10    38 1   
    19    11    12 1   
    20    12    13 ar  
    21    12    17 ar  
    22    13    14 ar  
    23    13    39 1   
    24    14    15 ar  
    25    14    40 1   
    26    15    16 ar  
    27    15    18 1   
    28    16    17 ar  
    29    16    23 1   
    30    17    41 1   
    31    18    19 1   
    32    18    42 1   
    33    19    20 1   
    34    19    22 2   
    35    20    21 1   
    36    20    43 1   
    37    21    24 ar  
    38    21    28 ar  
    39    24    25 ar  
    40    24    44 1   
    41    25    26 ar  
    42    25    45 1   
    43    26    27 ar  
    44    26    46 1   
    45    27    28 ar  
    46    27    29 1   
    47    28    47 1   
    48    29    30 1   
    49    29    31 1   
    50    29    32 1   
@<TRIPOS>SUBSTRUCTURE
     1 42Q         1 TEMP              0 ****  ****    0 ROOT
