@<TRIPOS>MOLECULE
42R
   31    32     1     0     0
SMALL
No Charge or Current Charge


@<TRIPOS>ATOM
      1 C1           1.6390     2.3390    -0.8080 c3         1 42R       0.215100
      2 N1           2.1440     1.1820    -0.0350 nh         1 42R      -0.660400
      3 C2           3.5160     1.2890     0.5220 c6         1 42R       0.229800
      4 C3           4.4450     0.1630    -0.0100 c6         1 42R       0.065000
      5 C4           5.7450     0.0860     0.8460 c3         1 42R      -0.113100
      6 O1           4.8530     0.4390    -1.3780 oh         1 42R      -0.652000
      7 C5           3.6760    -1.2000     0.0610 c          1 42R       0.568300
      8 O2           4.2550    -2.2790     0.0170 o          1 42R      -0.553100
      9 C6           2.1960    -1.1530     0.1120 ce         1 42R      -0.453200
     10 C7           1.4450    -0.0240     0.0550 cf         1 42R       0.280800
     11 C8          -0.0410    -0.0430     0.0600 ca         1 42R      -0.074800
     12 C9          -0.7750     0.9820     0.7000 ca         1 42R      -0.084500
     13 C10         -2.1810     0.9580     0.7120 ca         1 42R      -0.089000
     14 C11         -2.8690    -0.0920     0.0860 ca         1 42R      -0.008900
     15 Br1         -4.7820    -0.1240     0.1010 br         1 42R      -0.090100
     16 C12         -2.1560    -1.1200    -0.5470 ca         1 42R      -0.089000
     17 C13         -0.7500    -1.0980    -0.5580 ca         1 42R      -0.084500
     18 H1           0.8060     2.0450    -1.4590 h1         1 42R       0.046033
     19 H2           1.2930     3.1310    -0.1320 h1         1 42R       0.046033
     20 H3           2.4330     2.7510    -1.4460 h1         1 42R       0.046033
     21 H4           3.9620     2.2690     0.2960 h1         1 42R       0.059700
     22 H5           3.4580     1.2150     1.6180 h1         1 42R       0.059700
     23 H6           5.5180    -0.1590     1.8910 hc         1 42R       0.050367
     24 H7           6.4350    -0.6790     0.4710 hc         1 42R       0.050367
     25 H8           6.2820     1.0430     0.8410 hc         1 42R       0.050367
     26 H9           5.3080    -0.3670    -1.7110 ho         1 42R       0.454000
     27 H10          1.7060    -2.1190     0.1810 ha         1 42R       0.208000
     28 H11         -0.2560     1.7910     1.2080 ha         1 42R       0.127500
     29 H12         -2.7330     1.7520     1.2100 ha         1 42R       0.133500
     30 H13         -2.6890    -1.9340    -1.0330 ha         1 42R       0.133500
     31 H14         -0.2150    -1.8960    -1.0670 ha         1 42R       0.127500
@<TRIPOS>BOND
     1     1     2 1   
     2     1    18 1   
     3     1    19 1   
     4     1    20 1   
     5     2     3 1   
     6     2    10 1   
     7     3     4 1   
     8     3    21 1   
     9     3    22 1   
    10     4     5 1   
    11     4     6 1   
    12     4     7 1   
    13     5    23 1   
    14     5    24 1   
    15     5    25 1   
    16     6    26 1   
    17     7     8 2   
    18     7     9 1   
    19     9    10 2   
    20     9    27 1   
    21    10    11 1   
    22    11    12 ar  
    23    11    17 ar  
    24    12    13 ar  
    25    12    28 1   
    26    13    14 ar  
    27    13    29 1   
    28    14    15 1   
    29    14    16 ar  
    30    16    17 ar  
    31    16    30 1   
    32    17    31 1   
@<TRIPOS>SUBSTRUCTURE
     1 42R         1 TEMP              0 ****  ****    0 ROOT
