@<TRIPOS>MOLECULE
42R
   31    32     1     0     0
SMALL
abcg2


@<TRIPOS>ATOM
      1 C1           1.5930     2.4060    -0.5670 c3         1 42R       0.215100
      2 N1           2.1510     1.2070     0.0220 nh         1 42R      -0.660400
      3 C2           3.5330     1.2630     0.4550 c6         1 42R       0.229800
      4 C3           4.3320     0.0520     0.0100 c6         1 42R       0.065000
      5 C4           5.7410     0.1280     0.5700 c3         1 42R      -0.113100
      6 O1           4.3260     0.0580    -1.4070 oh         1 42R      -0.652000
      7 C5           3.5940    -1.2190     0.4670 c          1 42R       0.568300
      8 O2           4.2150    -2.2520     0.6960 o          1 42R      -0.553100
      9 C6           2.1690    -1.1190     0.4980 ce         1 42R      -0.453200
     10 C7           1.5070     0.0440     0.1710 cf         1 42R       0.280800
     11 C8           0.0330     0.0100     0.0420 ca         1 42R      -0.074800
     12 C9          -0.7660     0.8670     0.7950 ca         1 42R      -0.084500
     13 C10         -2.1470     0.7970     0.7190 ca         1 42R      -0.089000
     14 C11         -2.7300    -0.1350    -0.1290 ca         1 42R      -0.008900
     15 BR1         -4.6100    -0.2320    -0.2460 br         1 42R      -0.090100
     16 C12         -1.9540    -0.9970    -0.8900 ca         1 42R      -0.089000
     17 C13         -0.5730    -0.9220    -0.7940 ca         1 42R      -0.084500
     18 H1           0.6320     2.2050    -1.0290 h1         1 42R       0.046033
     19 H2           1.4630     3.1930     0.1780 h1         1 42R       0.046033
     20 H3           2.2650     2.7760    -1.3410 h1         1 42R       0.046033
     21 H4           3.9860     2.1730     0.0630 h1         1 42R       0.059700
     22 H5           3.5660     1.3240     1.5490 h1         1 42R       0.059700
     23 H6           5.7380     0.1500     1.6600 hc         1 42R       0.050367
     24 H7           6.3340    -0.7330     0.2600 hc         1 42R       0.050367
     25 H8           6.2410     1.0310     0.2160 hc         1 42R       0.050367
     26 H9           4.8850    -0.6620    -1.7180 ho         1 42R       0.454000
     27 H10          1.5860    -2.0050     0.7130 ha         1 42R       0.208000
     28 H11         -0.3150     1.5900     1.4630 ha         1 42R       0.127500
     29 H12         -2.7530     1.4620     1.3190 ha         1 42R       0.133500
     30 H13         -2.4090    -1.7220    -1.5520 ha         1 42R       0.133500
     31 H14          0.0360    -1.5920    -1.3870 ha         1 42R       0.127500
@<TRIPOS>BOND
     1     1     2 1   
     2     1    18 1   
     3     1    19 1   
     4     1    20 1   
     5     2     3 1   
     6     2    10 1   
     7     3     4 1   
     8     3    21 1   
     9     3    22 1   
    10     4     5 1   
    11     4     6 1   
    12     4     7 1   
    13     5    23 1   
    14     5    24 1   
    15     5    25 1   
    16     6    26 1   
    17     7     8 2   
    18     7     9 1   
    19     9    10 2   
    20     9    27 1   
    21    10    11 1   
    22    11    12 ar  
    23    11    17 ar  
    24    12    13 ar  
    25    12    28 1   
    26    13    14 ar  
    27    13    29 1   
    28    14    15 1   
    29    14    16 ar  
    30    16    17 ar  
    31    16    30 1   
    32    17    31 1   
@<TRIPOS>SUBSTRUCTURE
     1 42R         1 TEMP              0 ****  ****    0 ROOT
