@<TRIPOS>MOLECULE
42S
   31    32     1     0     0
SMALL
bcc


@<TRIPOS>ATOM
      1 C01          4.1840    -2.1480     1.0590 ca         1 42S      -0.155000
      2 C02          4.7860    -1.3530     0.0930 ca         1 42S      -0.098000
      3 C03          4.1350    -0.2360    -0.4060 ca         1 42S      -0.173500
      4 C04          2.8700     0.1160     0.0700 ca         1 42S       0.167600
      5 C05          2.2770    -0.6670     1.0600 ca         1 42S      -0.173500
      6 C06          2.9280    -1.7970     1.5350 ca         1 42S      -0.098000
      7 N07          2.2620     1.2610    -0.4450 nu         1 42S      -0.748600
      8 C08          0.9250     1.5540    -0.4310 ce         1 42S       0.647800
      9 C09         -0.0590     0.4620    -0.5930 ca         1 42S      -0.144900
     10 C10         -1.2590     0.5000     0.1040 ca         1 42S      -0.044000
     11 C11         -2.2040    -0.5040    -0.0790 ca         1 42S      -0.206300
     12 C12         -1.9580    -1.5470    -0.9600 ca         1 42S      -0.064000
     13 C13         -0.7570    -1.5820    -1.6560 ca         1 42S      -0.141000
     14 C14          0.1890    -0.5890    -1.4750 ca         1 42S      -0.066000
     15 C15         -3.4910    -0.4150     0.6800 c3         1 42S       0.722200
     16 F16         -4.2470    -1.5070     0.5440 f          1 42S      -0.234300
     17 F17         -3.2830    -0.2410     1.9930 f          1 42S      -0.234300
     18 F18         -4.2310     0.6280     0.2730 f          1 42S      -0.234300
     19 N19          0.4460     2.7400    -0.3860 n2         1 42S      -0.497200
     20 O20          1.4280     3.6890    -0.2300 oh         1 42S      -0.390500
     21 H1           4.6890    -3.0250     1.4420 ha         1 42S       0.134000
     22 H2           5.7680    -1.6050    -0.2860 ha         1 42S       0.132500
     23 H3           4.6060     0.3700    -1.1700 ha         1 42S       0.137000
     24 H4           1.3160    -0.3960     1.4770 ha         1 42S       0.137000
     25 H5           2.4500    -2.3950     2.3010 ha         1 42S       0.132500
     26 H6           2.8810     2.0190    -0.6910 hn         1 42S       0.456800
     27 H7          -1.4390     1.3110     0.7980 ha         1 42S       0.161000
     28 H8          -2.6820    -2.3350    -1.1130 ha         1 42S       0.151000
     29 H9          -0.5630    -2.3910    -2.3470 ha         1 42S       0.143000
     30 H10          1.1160    -0.6230    -2.0310 ha         1 42S       0.149000
     31 H11          0.9540     4.5250    -0.2840 ho         1 42S       0.434000
@<TRIPOS>BOND
     1     1     2 ar  
     2     1     6 ar  
     3     1    21 1   
     4     2     3 ar  
     5     2    22 1   
     6     3     4 ar  
     7     3    23 1   
     8     4     5 ar  
     9     4     7 1   
    10     5     6 ar  
    11     5    24 1   
    12     6    25 1   
    13     7     8 1   
    14     7    26 1   
    15     8     9 1   
    16     8    19 2   
    17     9    10 ar  
    18     9    14 ar  
    19    10    11 ar  
    20    10    27 1   
    21    11    12 ar  
    22    11    15 1   
    23    12    13 ar  
    24    12    28 1   
    25    13    14 ar  
    26    13    29 1   
    27    14    30 1   
    28    15    16 1   
    29    15    17 1   
    30    15    18 1   
    31    19    20 1   
    32    20    31 1   
@<TRIPOS>SUBSTRUCTURE
     1 42S         1 TEMP              0 ****  ****    0 ROOT
