@<TRIPOS>MOLECULE
42S
   31    32     1     0     0
SMALL
No Charge or Current Charge


@<TRIPOS>ATOM
      1 C01          4.9500    -1.6130     1.3110 ca         1 42S      -0.137000
      2 C02          5.3690    -0.7560     0.2800 ca         1 42S      -0.080000
      3 C03          4.4200     0.0010    -0.4310 ca         1 42S      -0.155500
      4 C04          3.0550    -0.0940    -0.1140 ca         1 42S       0.306000
      5 C05          2.6400    -0.9580     0.9150 ca         1 42S      -0.155500
      6 C06          3.5860    -1.7160     1.6290 ca         1 42S      -0.080000
      7 N07          2.1340     0.6570    -0.8340 nu         1 42S      -0.942200
      8 C08          0.8940     1.1120    -0.3910 ce         1 42S       0.647800
      9 C09         -0.2970     0.2260    -0.6470 ca         1 42S      -0.144900
     10 C10         -1.5410     0.4900    -0.0250 ca         1 42S      -0.026000
     11 C11         -2.6650    -0.3340    -0.2510 ca         1 42S      -0.206300
     12 C12         -2.5470    -1.4320    -1.1280 ca         1 42S      -0.046000
     13 C13         -1.3220    -1.7030    -1.7550 ca         1 42S      -0.123000
     14 C14         -0.2060    -0.8850    -1.5190 ca         1 42S      -0.048000
     15 C15         -3.9980    -0.0130     0.4360 c3         1 42S       0.358300
     16 F16         -4.8410    -1.0700     0.4660 f          1 42S      -0.113000
     17 F17         -3.8230     0.3760     1.7200 f          1 42S      -0.113000
     18 F18         -4.6460     0.9910    -0.1960 f          1 42S      -0.113000
     19 N19          0.8010     2.1400     0.4070 n2         1 42S      -0.398700
     20 O20          1.7690     3.1700     0.2370 oh         1 42S      -0.528000
     21 H1           5.6830    -2.1990     1.8620 ha         1 42S       0.116000
     22 H2           6.4260    -0.6780     0.0320 ha         1 42S       0.114500
     23 H3           4.7510     0.6590    -1.2300 ha         1 42S       0.119000
     24 H4           1.5870    -1.0490     1.1650 ha         1 42S       0.119000
     25 H5           3.2600    -2.3830     2.4250 ha         1 42S       0.114500
     26 H6           2.5940     1.4350    -1.2990 hn         1 42S       0.512000
     27 H7          -1.6420     1.3440     0.6440 ha         1 42S       0.143000
     28 H8          -3.3990    -2.0770    -1.3330 ha         1 42S       0.133000
     29 H9          -1.2360    -2.5510    -2.4300 ha         1 42S       0.125000
     30 H10          0.7290    -1.1220    -2.0230 ha         1 42S       0.131000
     31 H11          1.5530     3.8510     0.9220 ho         1 42S       0.473000
@<TRIPOS>BOND
     1     1     2 ar  
     2     1     6 ar  
     3     1    21 1   
     4     2     3 ar  
     5     2    22 1   
     6     3     4 ar  
     7     3    23 1   
     8     4     5 ar  
     9     4     7 1   
    10     5     6 ar  
    11     5    24 1   
    12     6    25 1   
    13     7     8 1   
    14     7    26 1   
    15     8     9 1   
    16     8    19 2   
    17     9    10 ar  
    18     9    14 ar  
    19    10    11 ar  
    20    10    27 1   
    21    11    12 ar  
    22    11    15 1   
    23    12    13 ar  
    24    12    28 1   
    25    13    14 ar  
    26    13    29 1   
    27    14    30 1   
    28    15    16 1   
    29    15    17 1   
    30    15    18 1   
    31    19    20 1   
    32    20    31 1   
@<TRIPOS>SUBSTRUCTURE
     1 42S         1 TEMP              0 ****  ****    0 ROOT
