@<TRIPOS>MOLECULE
42T
   47    49     1     0     0
SMALL
No Charge or Current Charge


@<TRIPOS>ATOM
      1 C01         -0.5470    -4.0840    -2.7420 ca         1 42T      -0.125000
      2 C02          0.2610    -3.7930    -1.6290 ca         1 42T      -0.099500
      3 C03         -0.3320    -3.4200    -0.4100 ca         1 42T      -0.122000
      4 C04         -1.7320    -3.3320    -0.2990 ca         1 42T       0.154400
      5 C05         -2.5370    -3.6310    -1.4140 ca         1 42T      -0.122000
      6 C06         -1.9460    -4.0050    -2.6340 ca         1 42T      -0.099500
      7 N07         -2.3170    -2.9490     0.9200 ne         1 42T      -0.618100
      8 C08         -3.0650    -1.8880     1.0090 cf         1 42T       0.673800
      9 C09         -2.6210    -0.5550     0.5320 ca         1 42T      -0.174900
     10 C10         -3.5430     0.3480    -0.0430 ca         1 42T      -0.069000
     11 C11         -3.1210     1.5960    -0.5430 ca         1 42T      -0.172300
     12 C12         -1.7540     1.9370    -0.4680 ca         1 42T      -0.112000
     13 C13         -0.8130     1.0430     0.0700 ca         1 42T      -0.005000
     14 C14         -1.2530    -0.2010     0.5670 ca         1 42T      -0.072000
     15 C07         -4.1450     2.5690    -1.1460 c3         1 42T       0.358300
     16 F16         -3.5820     3.4600    -1.9950 f          1 42T      -0.111667
     17 F17         -5.1070     1.9250    -1.8470 f          1 42T      -0.111667
     18 F18         -4.7700     3.2820    -0.1830 f          1 42T      -0.111667
     19 N19         -4.2810    -1.9300     1.6830 nu         1 42T      -0.660900
     20 O20         -4.4710    -2.9760     2.7090 oh         1 42T      -0.400300
     21 N14          0.5490     1.4560     0.0930 ns         1 42T      -0.160000
     22 C15          1.7200     0.7770     0.3940 c          1 42T       0.670100
     23 O16          1.7850    -0.4120     0.6810 o          1 42T      -0.590100
     24 N17          2.8340     1.5910     0.3000 ns         1 42T      -0.176000
     25 C18          4.1960     1.2940     0.5770 ca         1 42T      -0.028000
     26 C19          5.1650     1.5240    -0.4240 ca         1 42T       0.125000
     27 Cl1          4.6930     2.1600    -2.0010 cl         1 42T      -0.179500
     28 C21          6.5190     1.2370    -0.1860 ca         1 42T      -0.096000
     29 C22          6.9240     0.7280     1.0580 ca         1 42T      -0.090000
     30 C23          5.9720     0.5180     2.0690 ca         1 42T      -0.096000
     31 C24          4.6140     0.8010     1.8370 ca         1 42T       0.125000
     32 Cl2          3.4840     0.5980     3.1770 cl         1 42T      -0.179500
     33 H1          -0.0890    -4.3730    -3.6860 ha         1 42T       0.111000
     34 H2           1.3440    -3.8550    -1.7110 ha         1 42T       0.111500
     35 H3           0.2960    -3.1960     0.4480 ha         1 42T       0.120000
     36 H4          -3.6190    -3.5730    -1.3360 ha         1 42T       0.120000
     37 H5          -2.5720    -4.2330    -3.4950 ha         1 42T       0.111500
     38 H6          -4.5960     0.0740    -0.1120 ha         1 42T       0.142000
     39 H7          -1.4140     2.9020    -0.8410 ha         1 42T       0.128000
     40 H8          -0.5490    -0.8980     1.0090 ha         1 42T       0.165000
     41 H9          -4.6180    -1.0160     2.0000 hn         1 42T       0.492000
     42 H10         -5.0730    -3.6560     2.3170 ho         1 42T       0.456000
     43 H11          0.6830     2.4280    -0.1540 hn         1 42T       0.153000
     44 H12          2.6610     2.5340    -0.0260 hn         1 42T       0.164000
     45 H13          7.2550     1.4100    -0.9680 ha         1 42T       0.137500
     46 H14          7.9740     0.5080     1.2430 ha         1 42T       0.126000
     47 H15          6.2870     0.1440     3.0400 ha         1 42T       0.137500
@<TRIPOS>BOND
     1     1     2 ar  
     2     1     6 ar  
     3     1    33 1   
     4     2     3 ar  
     5     2    34 1   
     6     3     4 ar  
     7     3    35 1   
     8     4     5 ar  
     9     4     7 1   
    10     5     6 ar  
    11     5    36 1   
    12     6    37 1   
    13     7     8 2   
    14     8     9 1   
    15     8    19 1   
    16     9    10 ar  
    17     9    14 ar  
    18    10    11 ar  
    19    10    38 1   
    20    11    12 ar  
    21    11    15 1   
    22    12    13 ar  
    23    12    39 1   
    24    13    14 ar  
    25    13    21 1   
    26    14    40 1   
    27    15    16 1   
    28    15    17 1   
    29    15    18 1   
    30    19    20 1   
    31    19    41 1   
    32    20    42 1   
    33    21    22 1   
    34    21    43 1   
    35    22    23 2   
    36    22    24 1   
    37    24    25 1   
    38    24    44 1   
    39    25    26 ar  
    40    25    31 ar  
    41    26    27 1   
    42    26    28 ar  
    43    28    29 ar  
    44    28    45 1   
    45    29    30 ar  
    46    29    46 1   
    47    30    31 ar  
    48    30    47 1   
    49    31    32 1   
@<TRIPOS>SUBSTRUCTURE
     1 42T         1 TEMP              0 ****  ****    0 ROOT
