@<TRIPOS>MOLECULE
42T
   47    49     1     0     0
SMALL
bcc


@<TRIPOS>ATOM
      1 C01         -0.0950    -3.5050    -2.8540 ca         1 42T      -0.143000
      2 C02          0.3960    -3.9580    -1.6360 ca         1 42T      -0.117500
      3 C03         -0.3590    -3.8240    -0.4800 ca         1 42T      -0.140000
      4 C04         -1.6140    -3.2120    -0.5170 ca         1 42T       0.154400
      5 C05         -2.1070    -2.7700    -1.7470 ca         1 42T      -0.140000
      6 C06         -1.3530    -2.9170    -2.9010 ca         1 42T      -0.117500
      7 N07         -2.3590    -3.1340     0.6580 ne         1 42T      -0.618100
      8 C08         -2.8240    -2.0250     1.0780 cf         1 42T       0.673800
      9 C09         -2.5180    -0.6720     0.5310 ca         1 42T      -0.174900
     10 C10         -3.5470     0.1800     0.1620 ca         1 42T      -0.087000
     11 C11         -3.2260     1.4190    -0.3780 ca         1 42T      -0.172300
     12 C12         -1.9070     1.8110    -0.5150 ca         1 42T      -0.130000
     13 C13         -0.8720     0.9580    -0.1240 ca         1 42T       0.087600
     14 C14         -1.1870    -0.2960     0.3900 ca         1 42T      -0.090000
     15 C07         -4.3320     2.3540    -0.7610 c3         1 42T       0.722200
     16 F16         -3.9310     3.2980    -1.6170 f          1 42T      -0.232967
     17 F17         -5.3540     1.7090    -1.3350 f          1 42T      -0.232967
     18 F18         -4.8320     2.9870     0.3110 f          1 42T      -0.232967
     19 N19         -3.7170    -1.9720     2.1080 nu         1 42T      -0.605700
     20 O20         -3.9220    -3.1190     2.8260 oh         1 42T      -0.361300
     21 N14          0.4280     1.4120    -0.3160 ns         1 42T      -0.486100
     22 C15          1.5630     0.9510     0.2950 c          1 42T       0.804100
     23 O16          1.5860     0.0610     1.1230 o          1 42T      -0.590100
     24 N17          2.6920     1.6050    -0.1110 ns         1 42T      -0.502100
     25 C18          3.9460     1.2340     0.3860 ca         1 42T       0.064600
     26 C19          4.8540     0.5300    -0.4040 ca         1 42T       0.033400
     27 CL1          4.3910     0.0840    -2.0060 cl         1 42T      -0.087900
     28 C21          6.1090     0.1780     0.0630 ca         1 42T      -0.114000
     29 C22          6.4630     0.5150     1.3600 ca         1 42T      -0.108000
     30 C23          5.5830     1.2060     2.1770 ca         1 42T      -0.114000
     31 C24          4.3400     1.5660     1.6820 ca         1 42T       0.033400
     32 CL2          3.2610     2.4640     2.6830 cl         1 42T      -0.087900
     33 H1           0.4910    -3.6180    -3.7570 ha         1 42T       0.129000
     34 H2           1.3710    -4.4250    -1.5840 ha         1 42T       0.129500
     35 H3           0.0240    -4.1830     0.4670 ha         1 42T       0.138000
     36 H4          -3.0910    -2.3200    -1.8010 ha         1 42T       0.138000
     37 H5          -1.7540    -2.5720    -3.8460 ha         1 42T       0.129500
     38 H6          -4.5770    -0.1350     0.2710 ha         1 42T       0.160000
     39 H7          -1.6580     2.7820    -0.9250 ha         1 42T       0.146000
     40 H8          -0.4090    -0.9860     0.6740 ha         1 42T       0.183000
     41 H9          -3.6870    -1.1540     2.7030 hn         1 42T       0.436800
     42 H10         -4.7930    -3.4360     2.5590 ho         1 42T       0.417000
     43 H11          0.5130     2.2430    -0.8820 hn         1 42T       0.319500
     44 H12          2.6680     2.2090    -0.9200 hn         1 42T       0.330500
     45 H13          6.7950    -0.3640    -0.5720 ha         1 42T       0.155500
     46 H14          7.4380     0.2370     1.7370 ha         1 42T       0.144000
     47 H15          5.8620     1.4720     3.1870 ha         1 42T       0.155500
@<TRIPOS>BOND
     1     1     2 ar  
     2     1     6 ar  
     3     1    33 1   
     4     2     3 ar  
     5     2    34 1   
     6     3     4 ar  
     7     3    35 1   
     8     4     5 ar  
     9     4     7 1   
    10     5     6 ar  
    11     5    36 1   
    12     6    37 1   
    13     7     8 2   
    14     8     9 1   
    15     8    19 1   
    16     9    10 ar  
    17     9    14 ar  
    18    10    11 ar  
    19    10    38 1   
    20    11    12 ar  
    21    11    15 1   
    22    12    13 ar  
    23    12    39 1   
    24    13    14 ar  
    25    13    21 1   
    26    14    40 1   
    27    15    16 1   
    28    15    17 1   
    29    15    18 1   
    30    19    20 1   
    31    19    41 1   
    32    20    42 1   
    33    21    22 1   
    34    21    43 1   
    35    22    23 2   
    36    22    24 1   
    37    24    25 1   
    38    24    44 1   
    39    25    26 ar  
    40    25    31 ar  
    41    26    27 1   
    42    26    28 ar  
    43    28    29 ar  
    44    28    45 1   
    45    29    30 ar  
    46    29    46 1   
    47    30    31 ar  
    48    30    47 1   
    49    31    32 1   
@<TRIPOS>SUBSTRUCTURE
     1 42T         1 TEMP              0 ****  ****    0 ROOT
