@<TRIPOS>MOLECULE
42U
   54    57     1     0     0
SMALL
abcg2


@<TRIPOS>ATOM
      1 C01          3.8670    -3.9670     0.9710 ca         1 42U       0.174000
      2 F02          3.6900    -5.1930     1.4900 f          1 42U      -0.180000
      3 C03          4.7560    -3.8040    -0.0750 ca         1 42U      -0.158500
      4 C04          4.9290    -2.5360    -0.6070 ca         1 42U      -0.063000
      5 C05          4.2280    -1.4390    -0.1040 ca         1 42U      -0.135500
      6 C06          3.3480    -1.6440     0.9590 ca         1 42U      -0.063000
      7 C07          3.1590    -2.9060     1.5000 ca         1 42U      -0.158500
      8 C08          4.4460    -0.0990    -0.6620 cc         1 42U       0.315500
      9 C09          3.5180     0.9590    -0.8420 cc         1 42U      -0.134000
     10 C10          2.0770     0.9960    -0.5830 ca         1 42U      -0.062000
     11 C11          1.2280    -0.0320    -0.9900 ca         1 42U      -0.022000
     12 C12         -0.1330     0.0220    -0.7720 ca         1 42U      -0.203000
     13 C13         -0.7330     1.1170    -0.1300 ca         1 42U       0.383000
     14 N14         -2.0790     1.1410     0.0960 nu         1 42U      -0.955200
     15 C15         -2.9660     0.1200    -0.4160 c3         1 42U       0.209800
     16 C16         -4.4000     0.4520    -0.0250 c3         1 42U       0.158800
     17 N17         -5.3240    -0.5620    -0.4870 n3         1 42U      -0.730600
     18 C18         -6.6730    -0.0490    -0.6540 c6         1 42U       0.167300
     19 C19         -7.5720    -1.1180    -1.2480 c6         1 42U       0.156300
     20 N20         -7.5800    -2.2800    -0.3790 n7         1 42U      -0.863400
     21 C21         -6.2370    -2.8090    -0.2260 c6         1 42U       0.156300
     22 C22         -5.3360    -1.7400     0.3640 c6         1 42U       0.167300
     23 C23          0.1280     2.1560     0.2950 ca         1 42U      -0.283300
     24 C24          1.4950     2.0810     0.0630 ca         1 42U      -0.016000
     25 C25         -0.4170     3.3340     1.0340 c3         1 42U       0.359300
     26 F26          0.5280     4.2070     1.3930 f          1 42U      -0.119333
     27 F27         -1.3140     4.0270     0.3030 f          1 42U      -0.119333
     28 F28         -1.0560     2.9780     2.1620 f          1 42U      -0.119333
     29 C29          4.2790     1.9780    -1.3770 cd         1 42U      -0.164000
     30 N30          5.5290     1.5080    -1.4870 na         1 42U       0.004800
     31 N31          5.6560     0.2610    -1.0630 nd         1 42U      -0.515800
     32 H1           5.3020    -4.6510    -0.4700 ha         1 42U       0.132000
     33 H2           5.6160    -2.4020    -1.4330 ha         1 42U       0.127500
     34 H3           2.8090    -0.8090     1.3870 ha         1 42U       0.127500
     35 H4           2.4780    -3.0550     2.3280 ha         1 42U       0.132000
     36 H5           1.6340    -0.8920    -1.5070 ha         1 42U       0.123000
     37 H6          -0.7410    -0.7980    -1.1270 ha         1 42U       0.122000
     38 H7          -2.5150     2.0390     0.2180 hn         1 42U       0.485000
     39 H8          -2.9080     0.0330    -1.5070 h1         1 42U       0.050200
     40 H9          -2.6740    -0.8480     0.0000 h1         1 42U       0.050200
     41 H10         -4.4620     0.6080     1.0640 h1         1 42U       0.040200
     42 H11         -4.6730     1.4020    -0.4920 h1         1 42U       0.040200
     43 H13         -7.1030     0.2940     0.3030 h1         1 42U       0.039450
     44 H14         -6.6440     0.8130    -1.3250 h1         1 42U       0.039450
     45 H15         -8.5860    -0.7250    -1.3390 h1         1 42U       0.037700
     46 H16         -7.2160    -1.3490    -2.2640 h1         1 42U       0.037700
     47 H17         -8.1860    -2.9920    -0.7630 hn         1 42U       0.413000
     48 H19         -6.2620    -3.6690     0.4470 h1         1 42U       0.037700
     49 H20         -5.8010    -3.1490    -1.1780 h1         1 42U       0.037700
     50 H21         -4.3250    -2.1420     0.4560 h1         1 42U       0.039450
     51 H22         -5.6800    -1.4940     1.3830 h1         1 42U       0.039450
     52 H23          2.1370     2.8820     0.4050 ha         1 42U       0.126000
     53 H24          4.0080     2.9700    -1.6990 h4         1 42U       0.159000
     54 H25          6.3340     2.0040    -1.8360 hn         1 42U       0.376000
@<TRIPOS>BOND
     1     1     2 1   
     2     1     3 ar  
     3     1     7 ar  
     4     3     4 ar  
     5     3    32 1   
     6     4     5 ar  
     7     4    33 1   
     8     5     6 ar  
     9     5     8 1   
    10     6     7 ar  
    11     6    34 1   
    12     7    35 1   
    13     8     9 1   
    14     8    31 2   
    15     9    10 1   
    16     9    29 2   
    17    10    11 ar  
    18    10    24 ar  
    19    11    12 ar  
    20    11    36 1   
    21    12    13 ar  
    22    12    37 1   
    23    13    14 1   
    24    13    23 ar  
    25    14    15 1   
    26    14    38 1   
    27    15    16 1   
    28    15    39 1   
    29    15    40 1   
    30    16    17 1   
    31    16    41 1   
    32    16    42 1   
    33    17    18 1   
    34    17    22 1   
    35    18    19 1   
    36    18    43 1   
    37    18    44 1   
    38    19    20 1   
    39    19    45 1   
    40    19    46 1   
    41    20    21 1   
    42    20    47 1   
    43    21    22 1   
    44    21    48 1   
    45    21    49 1   
    46    22    50 1   
    47    22    51 1   
    48    23    24 ar  
    49    23    25 1   
    50    24    52 1   
    51    25    26 1   
    52    25    27 1   
    53    25    28 1   
    54    29    30 1   
    55    29    53 1   
    56    30    31 1   
    57    30    54 1   
@<TRIPOS>SUBSTRUCTURE
     1 42U         1 TEMP              0 ****  ****    0 ROOT
