@<TRIPOS>MOLECULE
42U
   54    57     1     0     0
SMALL
No Charge or Current Charge


@<TRIPOS>ATOM
      1 C01          3.9570    -4.2080     0.6430 ca         1 42U       0.174000
      2 F02          3.7650    -5.4940     1.0120 f          1 42U      -0.180000
      3 C03          5.0280    -3.8740    -0.1950 ca         1 42U      -0.158500
      4 C04          5.2310    -2.5350    -0.5750 ca         1 42U      -0.063000
      5 C05          4.3450    -1.5180    -0.1450 ca         1 42U      -0.135500
      6 C06          3.2980    -1.8710     0.7390 ca         1 42U      -0.063000
      7 C07          3.0970    -3.2100     1.1190 ca         1 42U      -0.158500
      8 C08          4.6010    -0.1100    -0.5100 cc         1 42U       0.315500
      9 C09          3.6800     0.9710    -0.4460 cc         1 42U      -0.134000
     10 C10          2.2090     1.0250    -0.4130 ca         1 42U      -0.062000
     11 C11          1.4360    -0.0370    -0.9160 ca         1 42U      -0.022000
     12 C12          0.0360     0.0320    -0.8980 ca         1 42U      -0.203000
     13 C13         -0.6230     1.1630    -0.3900 ca         1 42U       0.383000
     14 N14         -2.0180     1.2050    -0.3830 nu         1 42U      -0.955200
     15 C15         -2.9520     0.0680    -0.5470 c3         1 42U       0.209800
     16 C16         -4.4390     0.4990    -0.3790 c3         1 42U       0.158800
     17 N17         -5.4520    -0.5680    -0.6140 n3         1 42U      -0.730600
     18 C18         -6.8490    -0.0300    -0.6210 c6         1 42U       0.167300
     19 C19         -7.9180    -1.1360    -0.9100 c6         1 42U       0.156300
     20 N20         -7.8120    -2.2910     0.0270 n7         1 42U      -0.863400
     21 C21         -6.4210    -2.8270     0.0630 c6         1 42U       0.156300
     22 C22         -5.3540    -1.7180     0.3460 c6         1 42U       0.167300
     23 C23          0.1310     2.2520     0.0990 ca         1 42U      -0.283300
     24 C24          1.5450     2.1700     0.0740 ca         1 42U      -0.016000
     25 C25         -0.5550     3.5090     0.6560 c3         1 42U       0.359300
     26 F26          0.3200     4.4540     1.0730 f          1 42U      -0.119333
     27 F27         -1.3430     4.1030    -0.2690 f          1 42U      -0.119333
     28 F28         -1.3390     3.2220     1.7190 f          1 42U      -0.119333
     29 C29          4.3800     2.1060    -0.7350 cd         1 42U      -0.164000
     30 N30          5.6950     1.6770    -0.9250 na         1 42U       0.004800
     31 N31          5.8290     0.2980    -0.7850 nd         1 42U      -0.515800
     32 H1           5.7030    -4.6500    -0.5470 ha         1 42U       0.132000
     33 H2           6.0710    -2.2950    -1.2240 ha         1 42U       0.127500
     34 H3           2.6500    -1.1080     1.1630 ha         1 42U       0.127500
     35 H4           2.2850    -3.4710     1.7920 ha         1 42U       0.132000
     36 H5           1.9160    -0.9110    -1.3480 ha         1 42U       0.123000
     37 H6          -0.5310    -0.8030    -1.2960 ha         1 42U       0.122000
     38 H7          -2.4150     2.0770    -0.0380 hn         1 42U       0.485000
     39 H8          -2.8290    -0.3750    -1.5450 h1         1 42U       0.050200
     40 H9          -2.7160    -0.7050     0.1960 h1         1 42U       0.050200
     41 H10         -4.5660     0.9120     0.6320 h1         1 42U       0.040200
     42 H11         -4.6210     1.3220    -1.0830 h1         1 42U       0.040200
     43 H13         -7.0800     0.4330     0.3500 h1         1 42U       0.039450
     44 H14         -6.9490     0.7590    -1.3820 h1         1 42U       0.039450
     45 H15         -8.9250    -0.6990    -0.8450 h1         1 42U       0.037700
     46 H16         -7.7830    -1.4950    -1.9410 h1         1 42U       0.037700
     47 H17         -8.4530    -3.0340    -0.2780 hn         1 42U       0.413000
     48 H19         -6.3480    -3.6110     0.8320 h1         1 42U       0.037700
     49 H20         -6.1920    -3.2970    -0.9050 h1         1 42U       0.037700
     50 H21         -4.3600    -2.1840     0.2950 h1         1 42U       0.039450
     51 H22         -5.4860    -1.3590     1.3780 h1         1 42U       0.039450
     52 H23          2.1430     2.9920     0.4590 ha         1 42U       0.126000
     53 H24          4.0680     3.1360    -0.8700 h4         1 42U       0.159000
     54 H25          6.4940     2.2680    -1.1570 hn         1 42U       0.376000
@<TRIPOS>BOND
     1     1     2 1   
     2     1     3 ar  
     3     1     7 ar  
     4     3     4 ar  
     5     3    32 1   
     6     4     5 ar  
     7     4    33 1   
     8     5     6 ar  
     9     5     8 1   
    10     6     7 ar  
    11     6    34 1   
    12     7    35 1   
    13     8     9 1   
    14     8    31 2   
    15     9    10 1   
    16     9    29 2   
    17    10    11 ar  
    18    10    24 ar  
    19    11    12 ar  
    20    11    36 1   
    21    12    13 ar  
    22    12    37 1   
    23    13    14 1   
    24    13    23 ar  
    25    14    15 1   
    26    14    38 1   
    27    15    16 1   
    28    15    39 1   
    29    15    40 1   
    30    16    17 1   
    31    16    41 1   
    32    16    42 1   
    33    17    18 1   
    34    17    22 1   
    35    18    19 1   
    36    18    43 1   
    37    18    44 1   
    38    19    20 1   
    39    19    45 1   
    40    19    46 1   
    41    20    21 1   
    42    20    47 1   
    43    21    22 1   
    44    21    48 1   
    45    21    49 1   
    46    22    50 1   
    47    22    51 1   
    48    23    24 ar  
    49    23    25 1   
    50    24    52 1   
    51    25    26 1   
    52    25    27 1   
    53    25    28 1   
    54    29    30 1   
    55    29    53 1   
    56    30    31 1   
    57    30    54 1   
@<TRIPOS>SUBSTRUCTURE
     1 42U         1 TEMP              0 ****  ****    0 ROOT
