@<TRIPOS>MOLECULE
42V
   25    26     1     0     0
SMALL
No Charge or Current Charge


@<TRIPOS>ATOM
      1 N            3.4920    -0.8820     0.2500 ns         1 42V      -0.354100
      2 C           -3.2300    -1.9980    -0.6970 c3         1 42V       0.090300
      3 O            5.5410    -0.4510    -0.6200 o          1 42V      -0.535000
      4 C01         -1.1240    -0.7200    -0.1720 c          1 42V       0.572200
      5 C02         -0.8270     0.5690     0.4890 cc         1 42V      -0.123600
      6 C03         -3.1210     0.2440     0.4740 cs         1 42V       0.434400
      7 C04          0.3760     1.1770     0.7290 cf         1 42V      -0.058000
      8 C05          1.7320     0.7720     0.3520 cd         1 42V      -0.198000
      9 C06          2.6500     1.7080    -0.2550 cd         1 42V      -0.078000
     10 C07          3.9280     1.2900    -0.5810 cc         1 42V      -0.320200
     11 C08          4.4180    -0.0670    -0.3370 c          1 42V       0.552200
     12 C09          2.2000    -0.5100     0.5960 cc         1 42V       0.027600
     13 N01         -2.5230    -0.8310    -0.1370 n          1 42V      -0.323400
     14 N02         -2.0800     1.0400     0.8220 ns         1 42V      -0.462600
     15 S           -4.7350     0.5510     0.7600 s          1 42V      -0.540400
     16 H1           3.8070    -1.8270     0.4330 hn         1 42V       0.334500
     17 H2          -4.2520    -1.7210    -0.9830 h1         1 42V       0.065700
     18 H3          -2.7050    -2.3670    -1.5880 h1         1 42V       0.065700
     19 H4          -3.2710    -2.7980     0.0530 h1         1 42V       0.065700
     20 H5           0.2930     2.1760     1.1620 ha         1 42V       0.179000
     21 H7           2.3390     2.7320    -0.4590 ha         1 42V       0.185000
     22 H8           4.6450     1.9610    -1.0420 ha         1 42V       0.214000
     23 H9           1.6320    -1.3110     1.0630 h4         1 42V       0.240000
     24 H6          -2.2580     1.9210     1.3040 hn         1 42V       0.481000
     25 O01         -0.3530    -1.5370    -0.6570 o          1 42V      -0.515000
@<TRIPOS>BOND
     1     1    11 1   
     2     1    12 1   
     3     1    16 1   
     4     2    13 1   
     5     2    17 1   
     6     2    18 1   
     7     2    19 1   
     8     3    11 2   
     9     4     5 1   
    10     4    13 1   
    11     4    25 2   
    12     5     7 2   
    13     5    14 1   
    14     6    13 1   
    15     6    14 1   
    16     6    15 2   
    17     7     8 1   
    18     7    20 1   
    19     8     9 1   
    20     8    12 2   
    21     9    10 2   
    22     9    21 1   
    23    10    11 1   
    24    10    22 1   
    25    12    23 1   
    26    14    24 1   
@<TRIPOS>SUBSTRUCTURE
     1 42V         1 TEMP              0 ****  ****    0 ROOT
