@<TRIPOS>MOLECULE
42V
   25    26     1     0     0
SMALL
abcg2


@<TRIPOS>ATOM
      1 N            3.4810    -0.8430    -0.2640 ns         1 42V      -0.354100
      2 C           -3.3530    -2.1090    -0.1840 c3         1 42V       0.090300
      3 O            5.6830    -0.2950    -0.2920 o          1 42V      -0.535000
      4 C01         -1.2030    -0.8940    -0.0490 c          1 42V       0.572200
      5 C02         -0.8170     0.5030     0.2030 cc         1 42V      -0.123600
      6 C03         -3.0850     0.3410     0.2860 cs         1 42V       0.434400
      7 C04          0.3710     1.1380     0.2610 cf         1 42V      -0.058000
      8 C05          1.7390     0.7090     0.1080 cd         1 42V      -0.198000
      9 C06          2.7600     1.7030     0.2300 cd         1 42V      -0.078000
     10 C07          4.0770     1.4130     0.1050 cc         1 42V      -0.320200
     11 C08          4.5220     0.0710    -0.1610 c          1 42V       0.552200
     12 C09          2.1750    -0.5700    -0.1430 cc         1 42V       0.027600
     13 N01         -2.5780    -0.9070     0.0190 n          1 42V      -0.323400
     14 N02         -2.0310     1.1600     0.3900 ns         1 42V      -0.462600
     15 S           -4.6760     0.7590     0.4480 s          1 42V      -0.540400
     16 H1           3.7450    -1.8020    -0.4500 hn         1 42V       0.334500
     17 H2          -4.4040    -1.8670    -0.0580 h1         1 42V       0.065700
     18 H3          -3.1940    -2.4980    -1.1880 h1         1 42V       0.065700
     19 H4          -3.0710    -2.8680     0.5430 h1         1 42V       0.065700
     20 H5           0.2850     2.2010     0.4640 ha         1 42V       0.179000
     21 H7           2.4640     2.7260     0.4300 ha         1 42V       0.185000
     22 H8           4.8280     2.1840     0.2010 ha         1 42V       0.214000
     23 H9           1.5060    -1.4090    -0.2560 h4         1 42V       0.240000
     24 H6          -2.1290     2.1440     0.5890 hn         1 42V       0.481000
     25 O01         -0.5200    -1.8710    -0.2740 o          1 42V      -0.515000
@<TRIPOS>BOND
     1     1    11 1   
     2     1    12 1   
     3     1    16 1   
     4     2    13 1   
     5     2    17 1   
     6     2    18 1   
     7     2    19 1   
     8     3    11 2   
     9     4     5 1   
    10     4    13 1   
    11     4    25 2   
    12     5     7 2   
    13     5    14 1   
    14     6    13 1   
    15     6    14 1   
    16     6    15 2   
    17     7     8 1   
    18     7    20 1   
    19     8     9 1   
    20     8    12 2   
    21     9    10 2   
    22     9    21 1   
    23    10    11 1   
    24    10    22 1   
    25    12    23 1   
    26    14    24 1   
@<TRIPOS>SUBSTRUCTURE
     1 42V         1 TEMP              0 ****  ****    0 ROOT
