@<TRIPOS>MOLECULE
42W
   38    40     1     0     0
SMALL
abcg2


@<TRIPOS>ATOM
      1 C10          1.8470     2.6590     1.6400 cc         1 42W      -0.321200
      2 C13         -0.1630     1.5230     0.8900 cd         1 42W      -0.204000
      3 C15         -4.6130    -0.2280     0.1320 cs         1 42W       0.433400
      4 N01         -3.7810    -0.7670    -0.8200 n          1 42W      -0.323400
      5 C02          2.6640     0.4790    -1.2720 c3         1 42W       0.133300
      6 C03          2.9790    -1.6960    -0.0470 ca         1 42W      -0.083500
      7 C04          3.7840    -2.7060     0.4590 ca         1 42W      -0.113000
      8 C05          5.1630    -2.6430     0.3010 ca         1 42W      -0.097000
      9 C06          5.7310    -1.5640    -0.3630 ca         1 42W      -0.113000
     10 C07          4.9230    -0.5500    -0.8590 ca         1 42W      -0.083500
     11 C08          3.5420    -0.6080    -0.7090 ca         1 42W      -0.115300
     12 N02          1.9130     1.1780    -0.2290 n          1 42W      -0.258000
     13 O01          3.8220     2.2340     0.4080 o          1 42W      -0.531000
     14 C09          0.5250     2.4050     1.7750 cd         1 42W      -0.077000
     15 C11          2.6300     2.0470     0.6010 c          1 42W       0.554200
     16 C12          0.5960     0.9410    -0.0960 cc         1 42W       0.026600
     17 C14         -1.5750     1.3240     1.1050 cf         1 42W      -0.052000
     18 S           -6.2330    -0.5030     0.3090 s          1 42W      -0.544400
     19 N           -3.8500     0.5670     0.8910 ns         1 42W      -0.460600
     20 C16         -2.5190     0.5880     0.4810 cc         1 42W      -0.130600
     21 C           -2.4890    -0.3140    -0.6800 c          1 42W       0.573200
     22 H1           2.3590     3.3340     2.3120 ha         1 42W       0.213000
     23 H2          -5.1720    -2.0560    -1.6380 h1         1 42W       0.065367
     24 H3          -4.2140    -1.1630    -2.8300 h1         1 42W       0.065367
     25 H4          -3.4830    -2.5040    -1.9270 h1         1 42W       0.065367
     26 H5           3.2560     1.2040    -1.8280 h1         1 42W       0.073200
     27 H6           1.9360     0.0560    -1.9640 h1         1 42W       0.073200
     28 H7           1.9030    -1.7650     0.0730 ha         1 42W       0.116000
     29 H8           3.3330    -3.5470     0.9700 ha         1 42W       0.115500
     30 H9           5.7900    -3.4330     0.6940 ha         1 42W       0.114000
     31 H10          6.8040    -1.5080    -0.4900 ha         1 42W       0.115500
     32 H11          5.3700     0.2950    -1.3660 ha         1 42W       0.116000
     33 H12         -0.0300     2.8850     2.5720 ha         1 42W       0.184000
     34 H13          0.1610     0.2660    -0.8190 h4         1 42W       0.239000
     35 H14         -1.9540     1.8890     1.9520 ha         1 42W       0.178000
     36 H15         -4.2180     1.0770     1.6790 hn         1 42W       0.481000
     37 C01         -4.1830    -1.6740    -1.8700 c3         1 42W       0.091300
     38 O           -1.5690    -0.6370    -1.4030 o          1 42W      -0.518000
@<TRIPOS>BOND
     1     1    14 2   
     2     1    15 1   
     3     1    22 1   
     4     2    14 1   
     5     2    16 2   
     6     2    17 1   
     7     3     4 1   
     8     3    18 2   
     9     3    19 1   
    10     4    21 1   
    11     4    37 1   
    12     5    11 1   
    13     5    12 1   
    14     5    26 1   
    15     5    27 1   
    16     6     7 ar  
    17     6    11 ar  
    18     6    28 1   
    19     7     8 ar  
    20     7    29 1   
    21     8     9 ar  
    22     8    30 1   
    23     9    10 ar  
    24     9    31 1   
    25    10    11 ar  
    26    10    32 1   
    27    12    15 1   
    28    12    16 1   
    29    13    15 2   
    30    14    33 1   
    31    16    34 1   
    32    17    20 2   
    33    17    35 1   
    34    19    20 1   
    35    19    36 1   
    36    20    21 1   
    37    21    38 2   
    38    23    37 1   
    39    24    37 1   
    40    25    37 1   
@<TRIPOS>SUBSTRUCTURE
     1 42W         1 TEMP              0 ****  ****    0 ROOT
