@<TRIPOS>MOLECULE
42W
   38    40     1     0     0
SMALL
No Charge or Current Charge


@<TRIPOS>ATOM
      1 C10          1.6840     3.2970     0.7330 cc         1 42W      -0.321200
      2 C13          0.0050     1.5460     0.8830 cd         1 42W      -0.204000
      3 C15         -4.3370    -0.6610     0.5290 cs         1 42W       0.433400
      4 N01         -3.6960    -0.6370    -0.6860 n          1 42W      -0.323400
      5 C02          2.7740     0.3670    -1.4150 c3         1 42W       0.133300
      6 C03          2.9740    -2.0920    -0.7810 ca         1 42W      -0.083500
      7 C04          3.6180    -3.1420    -0.1040 ca         1 42W      -0.113000
      8 C05          4.7640    -2.8840     0.6670 ca         1 42W      -0.097000
      9 C06          5.2660    -1.5750     0.7610 ca         1 42W      -0.113000
     10 C07          4.6220    -0.5250     0.0850 ca         1 42W      -0.083500
     11 C08          3.4730    -0.7770    -0.6900 ca         1 42W      -0.115300
     12 N02          2.0060     1.2450    -0.5010 n          1 42W      -0.258000
     13 O01          3.5830     2.9460    -0.6150 o          1 42W      -0.531000
     14 C09          0.4850     2.8530     1.2490 cd         1 42W      -0.077000
     15 C11          2.5230     2.5160    -0.1800 c          1 42W       0.554200
     16 C12          0.7980     0.7920     0.0340 cc         1 42W       0.026600
     17 C14         -1.2500     1.0210     1.4240 cf         1 42W      -0.052000
     18 S           -5.8350    -1.2710     0.9370 s          1 42W      -0.544400
     19 N           -3.4650    -0.0510     1.3680 ns         1 42W      -0.460600
     20 C16         -2.2850     0.3810     0.7980 cc         1 42W      -0.130600
     21 C           -2.4410    -0.0150    -0.6190 c          1 42W       0.573200
     22 H1           2.0770     4.2750     0.9840 ha         1 42W       0.213000
     23 H2          -4.9560    -1.9780    -1.7420 h1         1 42W       0.065367
     24 H3          -4.7440    -0.3730    -2.5020 h1         1 42W       0.065367
     25 H4          -3.4260    -1.5800    -2.5660 h1         1 42W       0.065367
     26 H5           3.5200     0.9460    -1.9740 h1         1 42W       0.073200
     27 H6           2.0830    -0.0420    -2.1630 h1         1 42W       0.073200
     28 H7           2.0870    -2.3030    -1.3750 ha         1 42W       0.116000
     29 H8           3.2290    -4.1550    -0.1780 ha         1 42W       0.115500
     30 H9           5.2630    -3.6980     1.1910 ha         1 42W       0.114000
     31 H10          6.1520    -1.3740     1.3580 ha         1 42W       0.115500
     32 H11          5.0160     0.4870     0.1640 ha         1 42W       0.116000
     33 H12         -0.0910     3.4850     1.9230 ha         1 42W       0.184000
     34 H13          0.5600    -0.2170    -0.2880 h4         1 42W       0.239000
     35 H14         -1.4310     1.2410     2.4780 ha         1 42W       0.178000
     36 H15         -3.7080     0.0620     2.3520 hn         1 42W       0.481000
     37 C01         -4.2380    -1.1740    -1.9480 c3         1 42W       0.091300
     38 O           -1.6730     0.1510    -1.5580 o          1 42W      -0.518000
@<TRIPOS>BOND
     1     1    14 2   
     2     1    15 1   
     3     1    22 1   
     4     2    14 1   
     5     2    16 2   
     6     2    17 1   
     7     3     4 1   
     8     3    18 2   
     9     3    19 1   
    10     4    21 1   
    11     4    37 1   
    12     5    11 1   
    13     5    12 1   
    14     5    26 1   
    15     5    27 1   
    16     6     7 ar  
    17     6    11 ar  
    18     6    28 1   
    19     7     8 ar  
    20     7    29 1   
    21     8     9 ar  
    22     8    30 1   
    23     9    10 ar  
    24     9    31 1   
    25    10    11 ar  
    26    10    32 1   
    27    12    15 1   
    28    12    16 1   
    29    13    15 2   
    30    14    33 1   
    31    16    34 1   
    32    17    20 2   
    33    17    35 1   
    34    19    20 1   
    35    19    36 1   
    36    20    21 1   
    37    21    38 2   
    38    23    37 1   
    39    24    37 1   
    40    25    37 1   
@<TRIPOS>SUBSTRUCTURE
     1 42W         1 TEMP              0 ****  ****    0 ROOT
