@<TRIPOS>MOLECULE
42Y
   21    20     1     0     0
SMALL
No Charge or Current Charge


@<TRIPOS>ATOM
      1 N            0.9670     1.9090    -0.4210 n8         1 42Y      -0.990200
      2 CA           1.3460     0.6120     0.2710 c3         1 42Y       0.013500
      3 CB           0.2640    -0.4810     0.0610 c3         1 42Y       0.136600
      4 OG          -1.0150     0.0580     0.4580 os         1 42Y      -0.462100
      5 C1A         -2.1140    -0.7560     0.3660 c          1 42Y       0.589100
      6 OAC         -2.0890    -1.9100    -0.0400 o          1 42Y      -0.509000
      7 C2A         -3.3930    -0.0400     0.8070 c3         1 42Y      -0.145400
      8 C            2.7630     0.0090    -0.0720 c          1 42Y       0.724000
      9 O            2.9990    -0.3030    -1.2330 o          1 42Y      -0.721000
     10 C1          -4.1390     0.5750    -0.3970 c3         1 42Y      -0.077100
     11 O1           3.5930    -0.0700     0.8240 o          1 42Y      -0.721000
     12 H1           1.0200     1.7670    -1.4370 hn         1 42Y       0.382000
     13 H2          -0.0340     2.0700    -0.2520 hn         1 42Y       0.382000
     14 H4           1.3620     0.8250     1.3490 h1         1 42Y       0.056700
     15 H5           0.2460    -0.7850    -0.9950 h1         1 42Y       0.054700
     16 H6           0.5190    -1.3620     0.6650 h1         1 42Y       0.054700
     17 H7          -4.0570    -0.7550     1.3070 hc         1 42Y       0.063700
     18 H8          -3.1340     0.7830     1.4840 hc         1 42Y       0.063700
     19 H9          -3.5040     1.3020    -0.9170 hc         1 42Y       0.034367
     20 H10         -4.4290    -0.2050    -1.1120 hc         1 42Y       0.034367
     21 H11         -5.0480     1.0900    -0.0630 hc         1 42Y       0.034367
@<TRIPOS>BOND
     1     1     2 1   
     2     1    12 1   
     3     1    13 1   
     4     2     3 1   
     5     2     8 1   
     6     2    14 1   
     7     3     4 1   
     8     3    15 1   
     9     3    16 1   
    10     4     5 1   
    11     5     6 2   
    12     5     7 1   
    13     7    10 1   
    14     7    17 1   
    15     7    18 1   
    16     8     9 1   
    17     8    11 1   
    18    10    19 1   
    19    10    20 1   
    20    10    21 1   
@<TRIPOS>SUBSTRUCTURE
     1 42Y         1 TEMP              0 ****  ****    0 ROOT
