@<TRIPOS>MOLECULE
42Y
   21    20     1     0     0
SMALL
bcc


@<TRIPOS>ATOM
      1 N            1.3960     1.8910    -0.0870 n8         1 42Y      -0.879800
      2 CA           1.4190     0.5390     0.4350 c3         1 42Y       0.013500
      3 CB           0.2880    -0.3490    -0.0750 c3         1 42Y       0.113400
      4 OG          -0.9540     0.2390     0.3410 os         1 42Y      -0.438900
      5 C1A         -2.0870    -0.2820    -0.1120 c          1 42Y       0.638100
      6 OAC         -2.1340    -1.2250    -0.8630 o          1 42Y      -0.558000
      7 C2A         -3.2860     0.4440     0.4390 c3         1 42Y      -0.145400
      8 C            2.7530    -0.1790     0.1040 c          1 42Y       0.934600
      9 O            3.4740     0.3280    -0.7740 o          1 42Y      -0.826300
     10 C1          -4.6070    -0.0700    -0.1030 c3         1 42Y      -0.077100
     11 O1           2.9650    -1.2330     0.7350 o          1 42Y      -0.826300
     12 H1           1.7000     1.8740    -1.0520 hn         1 42Y       0.326800
     13 H2           0.4540     2.2610    -0.0790 hn         1 42Y       0.326800
     14 H4           1.3350     0.5840     1.5270 h1         1 42Y       0.056700
     15 H5           0.3220    -0.4140    -1.1670 h1         1 42Y       0.054700
     16 H6           0.3700    -1.3570     0.3360 h1         1 42Y       0.054700
     17 H7          -3.2570     0.3580     1.5300 hc         1 42Y       0.063700
     18 H8          -3.1690     1.5110     0.2300 hc         1 42Y       0.063700
     19 H9          -4.6730     0.0500    -1.1840 hc         1 42Y       0.034367
     20 H10         -4.7550    -1.1230     0.1290 hc         1 42Y       0.034367
     21 H11         -5.4310     0.4860     0.3430 hc         1 42Y       0.034367
@<TRIPOS>BOND
     1     1     2 1   
     2     1    12 1   
     3     1    13 1   
     4     2     3 1   
     5     2     8 1   
     6     2    14 1   
     7     3     4 1   
     8     3    15 1   
     9     3    16 1   
    10     4     5 1   
    11     5     6 2   
    12     5     7 1   
    13     7    10 1   
    14     7    17 1   
    15     7    18 1   
    16     8     9 1   
    17     8    11 1   
    18    10    19 1   
    19    10    20 1   
    20    10    21 1   
@<TRIPOS>SUBSTRUCTURE
     1 42Y         1 TEMP              0 ****  ****    0 ROOT
