@<TRIPOS>MOLECULE
42Z
   24    25     1     0     0
SMALL
No Charge or Current Charge


@<TRIPOS>ATOM
      1 C1          -1.6630     1.3010     0.0020 ca         1 42Z      -0.027000
      2 C2          -0.7250     0.2600     0.0080 ca         1 42Z       0.075400
      3 C3          -1.1290    -1.0410     0.0170 ca         1 42Z      -0.086200
      4 C4          -2.4770    -1.4210     0.0210 ca         1 42Z      -0.099000
      5 C5          -3.4430    -0.3930     0.0150 ca         1 42Z       0.125000
      6 C6          -3.0360     0.9690     0.0050 ca         1 42Z       0.086000
      7 N13         -0.0010    -1.8010     0.0220 na         1 42Z      -0.276600
      8 C14          1.0980    -0.9340     0.0150 cc         1 42Z       0.383800
      9 N15          0.6620     0.3550     0.0070 nd         1 42Z      -0.549100
     10 C24          2.5470    -1.3500     0.0170 c          1 42Z       0.519800
     11 N26          3.4340    -0.2880     0.0090 ns         1 42Z      -0.413900
     12 C28          5.6140     0.9820    -0.0010 c          1 42Z       0.715000
     13 O30          6.8360     1.0000    -0.0010 o          1 42Z      -0.719500
     14 O32          4.9230     1.9930    -0.0070 o          1 42Z      -0.719500
     15 O34          2.9400    -2.5160     0.0250 o          1 42Z      -0.664100
     16 C43          4.9110    -0.4030     0.0090 c3         1 42Z      -0.067000
     17 H1          -1.3410     2.3380    -0.0050 ha         1 42Z       0.149000
     18 H4          -2.7710    -2.4670     0.0280 ha         1 42Z       0.130000
     19 HN26         3.0230     0.6440     0.0030 hn         1 42Z       0.369500
     20 H43          5.2300    -0.9490     0.9060 h1         1 42Z       0.040700
     21 H43A         5.2280    -0.9610    -0.8810 h1         1 42Z       0.040700
     22 HN13         0.0570    -2.8120     0.0290 hn         1 42Z       0.379000
     23 Cl3         -4.2280     2.2710    -0.0030 cl         1 42Z      -0.195000
     24 Cl4         -5.1520    -0.8310     0.0190 cl         1 42Z      -0.197000
@<TRIPOS>BOND
     1     1     2 ar  
     2     1     6 ar  
     3     1    17 1   
     4     2     3 ar  
     5     2     9 1   
     6     3     4 ar  
     7     3     7 1   
     8     4     5 ar  
     9     4    18 1   
    10     5     6 ar  
    11     5    24 1   
    12     6    23 1   
    13     7     8 1   
    14     7    22 1   
    15     8     9 2   
    16     8    10 1   
    17    10    11 1   
    18    10    15 2   
    19    11    16 1   
    20    11    19 1   
    21    12    13 1   
    22    12    14 1   
    23    12    16 1   
    24    16    20 1   
    25    16    21 1   
@<TRIPOS>SUBSTRUCTURE
     1 42Z         1 TEMP              0 ****  ****    0 ROOT
