@<TRIPOS>MOLECULE
42Z
   24    25     1     0     0
SMALL
abcg2


@<TRIPOS>ATOM
      1 C1          -1.6620     1.3190     0.0080 ca         1 42Z      -0.027000
      2 C2          -0.6940     0.3160     0.0100 ca         1 42Z       0.075400
      3 C3          -1.0790    -1.0360     0.0140 ca         1 42Z      -0.086200
      4 C4          -2.4100    -1.4320     0.0150 ca         1 42Z      -0.099000
      5 C5          -3.3550    -0.4260     0.0130 ca         1 42Z       0.125000
      6 C6          -2.9860     0.9340     0.0090 ca         1 42Z       0.086000
      7 N13          0.0910    -1.7320     0.0180 na         1 42Z      -0.276600
      8 C14          1.0930    -0.8210     0.0150 cc         1 42Z       0.383800
      9 N15          0.6700     0.4140     0.0110 nd         1 42Z      -0.549100
     10 C24          2.5150    -1.2620     0.0210 c          1 42Z       0.519800
     11 N26          3.3910    -0.2690     0.0110 ns         1 42Z      -0.413900
     12 C28          5.5340     0.9240    -0.0080 c          1 42Z       0.715000
     13 O30          6.7740     0.8740     0.0000 o          1 42Z      -0.719500
     14 O32          4.8090     1.9370    -0.0330 o          1 42Z      -0.719500
     15 O34          2.7830    -2.4580     0.0330 o          1 42Z      -0.664100
     16 C43          4.8200    -0.4450     0.0140 c3         1 42Z      -0.067000
     17 H1          -1.3850     2.3640     0.0050 ha         1 42Z       0.149000
     18 H4          -2.7020    -2.4730     0.0190 ha         1 42Z       0.130000
     19 HN26         3.0710     0.6920    -0.0030 hn         1 42Z       0.369500
     20 H43          5.1410    -1.0010     0.9000 h1         1 42Z       0.040700
     21 H43A         5.1410    -1.0280    -0.8540 h1         1 42Z       0.040700
     22 HN13         0.2090    -2.7340     0.0190 hn         1 42Z       0.379000
     23 CL3         -4.2090     2.1520     0.0070 cl         1 42Z      -0.195000
     24 CL4         -5.0240    -0.8600     0.0140 cl         1 42Z      -0.197000
@<TRIPOS>BOND
     1     1     2 ar  
     2     1     6 ar  
     3     1    17 1   
     4     2     3 ar  
     5     2     9 1   
     6     3     4 ar  
     7     3     7 1   
     8     4     5 ar  
     9     4    18 1   
    10     5     6 ar  
    11     5    24 1   
    12     6    23 1   
    13     7     8 1   
    14     7    22 1   
    15     8     9 2   
    16     8    10 1   
    17    10    11 1   
    18    10    15 2   
    19    11    16 1   
    20    11    19 1   
    21    12    13 1   
    22    12    14 1   
    23    12    16 1   
    24    16    20 1   
    25    16    21 1   
@<TRIPOS>SUBSTRUCTURE
     1 42Z         1 TEMP              0 ****  ****    0 ROOT
