@<TRIPOS>MOLECULE
430
   46    49     1     0     0
SMALL
No Charge or Current Charge


@<TRIPOS>ATOM
      1 C01         -2.0600    -0.3460    -2.2180 c3         1 430      -0.125100
      2 C02         -2.1610    -0.1710    -0.6860 c3         1 430       0.224600
      3 O03         -1.3540     0.9620    -0.3110 os         1 430      -0.321100
      4 C04          0.0140     0.9030    -0.2490 cc         1 430       0.186100
      5 C05          0.7970    -0.2680    -0.4330 cc         1 430      -0.199000
      6 C06          2.1280     0.0390    -0.3490 cd         1 430      -0.086200
      7 N07          3.0730    -1.0000    -0.3580 na         1 430      -0.080400
      8 C08          2.8890    -2.2730     0.1860 cc         1 430       0.436700
      9 N09          4.0800    -2.7980     0.5530 nd         1 430      -0.561100
     10 C10          5.0070    -1.8100     0.2110 ca         1 430       0.071400
     11 C11          6.4020    -1.8780     0.3500 ca         1 430      -0.046000
     12 C12          7.1800    -0.8020    -0.1280 ca         1 430      -0.130000
     13 C13          6.5630     0.3030    -0.7590 ca         1 430      -0.091000
     14 C14          5.1600     0.3530    -0.8930 ca         1 430      -0.110000
     15 C15          4.4110    -0.7060    -0.3480 ca         1 430      -0.073200
     16 S16          2.4560     1.7340     0.0640 ss         1 430       0.246000
     17 C17          0.7070     2.0680     0.0010 cd         1 430      -0.336600
     18 C18          0.1260     3.4160     0.1800 c          1 430       0.657700
     19 N19          1.0270     4.3900     0.4150 nt         1 430      -0.606000
     20 O20         -1.0590     3.6970     0.1320 o          1 430      -0.587100
     21 C21         -3.6140     0.0970    -0.2500 ca         1 430      -0.039300
     22 C22         -4.1570     1.3760    -0.5090 ca         1 430      -0.086000
     23 C23         -5.4730     1.6930    -0.1440 ca         1 430      -0.084000
     24 C24         -6.2700     0.7330     0.4870 ca         1 430      -0.110000
     25 C25         -5.7540    -0.5450     0.7510 ca         1 430      -0.072000
     26 C26         -4.4290    -0.8890     0.3870 ca         1 430      -0.182300
     27 C27         -3.9090    -2.3100     0.6910 c3         1 430       0.352300
     28 F28         -4.8610    -3.1290     1.1950 f          1 430      -0.115333
     29 F29         -3.4350    -2.9250    -0.4170 f          1 430      -0.115333
     30 F30         -2.9070    -2.2920     1.6000 f          1 430      -0.115333
     31 H011        -1.0350    -0.5800    -2.5270 hc         1 430       0.056367
     32 H012        -2.7070    -1.1670    -2.5490 hc         1 430       0.056367
     33 H013        -2.3750     0.5670    -2.7360 hc         1 430       0.056367
     34 H02         -1.7820    -1.0710    -0.1930 h1         1 430       0.055700
     35 H05          0.3870    -1.2530    -0.6250 ha         1 430       0.157000
     36 H08          1.9130    -2.7110     0.3540 h5         1 430       0.070800
     37 H11          6.8710    -2.7480     0.8010 ha         1 430       0.132000
     38 H12          8.2640    -0.8350    -0.0340 ha         1 430       0.117000
     39 H13          7.1730     1.1110    -1.1560 ha         1 430       0.115000
     40 H14          4.6930     1.1780    -1.4240 ha         1 430       0.126000
     41 H191         2.0100     4.1740     0.4590 hn         1 430       0.312500
     42 H192         0.7020     5.3360     0.5470 hn         1 430       0.312500
     43 H22         -3.5510     2.1360    -0.9970 ha         1 430       0.153000
     44 H23         -5.8720     2.6840    -0.3500 ha         1 430       0.123000
     45 H24         -7.2910     0.9770     0.7740 ha         1 430       0.121000
     46 H25         -6.4040    -1.2660     1.2430 ha         1 430       0.131000
@<TRIPOS>BOND
     1     1     2 1   
     2     1    31 1   
     3     1    32 1   
     4     1    33 1   
     5     2     3 1   
     6     2    21 1   
     7     2    34 1   
     8     3     4 1   
     9     4     5 1   
    10     4    17 2   
    11     5     6 2   
    12     5    35 1   
    13     6     7 1   
    14     6    16 1   
    15     7     8 1   
    16     7    15 1   
    17     8     9 2   
    18     8    36 1   
    19     9    10 1   
    20    10    11 ar  
    21    10    15 ar  
    22    11    12 ar  
    23    11    37 1   
    24    12    13 ar  
    25    12    38 1   
    26    13    14 ar  
    27    13    39 1   
    28    14    15 ar  
    29    14    40 1   
    30    16    17 1   
    31    17    18 1   
    32    18    19 1   
    33    18    20 2   
    34    19    41 1   
    35    19    42 1   
    36    21    22 ar  
    37    21    26 ar  
    38    22    23 ar  
    39    22    43 1   
    40    23    24 ar  
    41    23    44 1   
    42    24    25 ar  
    43    24    45 1   
    44    25    26 ar  
    45    25    46 1   
    46    26    27 1   
    47    27    28 1   
    48    27    29 1   
    49    27    30 1   
@<TRIPOS>SUBSTRUCTURE
     1 430         1 TEMP              0 ****  ****    0 ROOT
