@<TRIPOS>MOLECULE
430
   46    49     1     0     0
SMALL
bcc


@<TRIPOS>ATOM
      1 C01         -1.6560    -0.0170    -1.9110 c3         1 430      -0.125100
      2 C02         -2.0350    -0.1650    -0.4450 c3         1 430       0.201400
      3 O03         -1.3910     0.8250     0.3650 os         1 430      -0.297900
      4 C04         -0.0550     0.8890     0.3470 cc         1 430       0.186100
      5 C05          0.8120    -0.2400     0.4030 cc         1 430      -0.217000
      6 C06          2.1170     0.1340     0.4520 cd         1 430       0.058700
      7 N07          3.2160    -0.7090     0.5600 na         1 430      -0.080400
      8 C08          3.3550    -1.7210     1.4750 cc         1 430       0.436700
      9 N09          4.4820    -2.3490     1.3790 nd         1 430      -0.561100
     10 C10          5.1550    -1.7310     0.3460 ca         1 430       0.071400
     11 C11          6.4140    -2.0010    -0.1850 ca         1 430      -0.064000
     12 C12          6.8510    -1.2200    -1.2400 ca         1 430      -0.148000
     13 C13          6.0550    -0.1940    -1.7670 ca         1 430      -0.109000
     14 C14          4.8010     0.0900    -1.2530 ca         1 430      -0.128000
     15 C15          4.3790    -0.6930    -0.1870 ca         1 430      -0.073200
     16 S16          2.3220     1.8410     0.4460 ss         1 430      -0.043800
     17 C17          0.6150     2.0860     0.3350 cd         1 430      -0.191700
     18 C18          0.0350     3.4380     0.1750 c          1 430       0.724700
     19 N19          0.7920     4.4450     0.6540 nt         1 430      -0.673000
     20 O20         -1.0330     3.6170    -0.3870 o          1 430      -0.587100
     21 C21         -3.5190     0.0610    -0.2470 ca         1 430      -0.039300
     22 C22         -3.9860     1.3690    -0.3490 ca         1 430      -0.104000
     23 C23         -5.3340     1.6640    -0.2300 ca         1 430      -0.102000
     24 C24         -6.2480     0.6470    -0.0090 ca         1 430      -0.128000
     25 C25         -5.8040    -0.6610     0.0930 ca         1 430      -0.090000
     26 C26         -4.4500    -0.9610    -0.0240 ca         1 430      -0.182300
     27 C27         -4.0190    -2.3930     0.1130 c3         1 430       0.716200
     28 F28         -5.0480    -3.2270     0.2690 f          1 430      -0.236633
     29 F29         -3.3400    -2.8220    -0.9640 f          1 430      -0.236633
     30 F30         -3.2150    -2.5760     1.1730 f          1 430      -0.236633
     31 H011        -0.5980    -0.2250    -2.0750 hc         1 430       0.056367
     32 H012        -2.2250    -0.7220    -2.5140 hc         1 430       0.056367
     33 H013        -1.8710     0.9900    -2.2700 hc         1 430       0.056367
     34 H02         -1.7270    -1.1500    -0.0930 h1         1 430       0.055700
     35 H05          0.4900    -1.2720     0.4030 ha         1 430       0.175000
     36 H08          2.5740    -1.9260     2.1930 h5         1 430       0.070800
     37 H11          7.0270    -2.7970     0.2190 ha         1 430       0.150000
     38 H12          7.8260    -1.4050    -1.6710 ha         1 430       0.135000
     39 H13          6.4280     0.3910    -2.5980 ha         1 430       0.133000
     40 H14          4.1910     0.8790    -1.6720 ha         1 430       0.144000
     41 H191         1.5310     4.2950     1.3190 hn         1 430       0.312500
     42 H192         0.4410     5.3870     0.5880 hn         1 430       0.312500
     43 H22         -3.2820     2.1730    -0.5190 ha         1 430       0.171000
     44 H23         -5.6680     2.6910    -0.3110 ha         1 430       0.141000
     45 H24         -7.3040     0.8630     0.0840 ha         1 430       0.139000
     46 H25         -6.5290    -1.4430     0.2670 ha         1 430       0.149000
@<TRIPOS>BOND
     1     1     2 1   
     2     1    31 1   
     3     1    32 1   
     4     1    33 1   
     5     2     3 1   
     6     2    21 1   
     7     2    34 1   
     8     3     4 1   
     9     4     5 1   
    10     4    17 2   
    11     5     6 2   
    12     5    35 1   
    13     6     7 1   
    14     6    16 1   
    15     7     8 1   
    16     7    15 1   
    17     8     9 2   
    18     8    36 1   
    19     9    10 1   
    20    10    11 ar  
    21    10    15 ar  
    22    11    12 ar  
    23    11    37 1   
    24    12    13 ar  
    25    12    38 1   
    26    13    14 ar  
    27    13    39 1   
    28    14    15 ar  
    29    14    40 1   
    30    16    17 1   
    31    17    18 1   
    32    18    19 1   
    33    18    20 2   
    34    19    41 1   
    35    19    42 1   
    36    21    22 ar  
    37    21    26 ar  
    38    22    23 ar  
    39    22    43 1   
    40    23    24 ar  
    41    23    44 1   
    42    24    25 ar  
    43    24    45 1   
    44    25    26 ar  
    45    25    46 1   
    46    26    27 1   
    47    27    28 1   
    48    27    29 1   
    49    27    30 1   
@<TRIPOS>SUBSTRUCTURE
     1 430         1 TEMP              0 ****  ****    0 ROOT
