@<TRIPOS>MOLECULE
431
   30    32     1     0     0
SMALL
No Charge or Current Charge


@<TRIPOS>ATOM
      1 CAB         -0.4130     1.6190    -0.0090 cc         1 431      -0.391200
      2 CAD         -1.8660     1.7560    -0.0030 c          1 431       0.596900
      3 OAH         -2.4170     2.8480    -0.0110 o          1 431      -0.544100
      4 CAE         -2.6270     0.4740     0.0110 ca         1 431      -0.227600
      5 CAN         -4.0390     0.4530     0.0180 ca         1 431      -0.025000
      6 CAQ         -4.7230    -0.7760     0.0320 ca         1 431      -0.147000
      7 CAR         -4.0060    -1.9840     0.0390 ca         1 431      -0.058000
      8 CAO         -2.6010    -1.9610     0.0330 ca         1 431      -0.142000
      9 CAF         -1.9160    -0.7360     0.0190 ca         1 431       0.152100
     10 OAC         -0.5420    -0.7410     0.0130 os         1 431      -0.217200
     11 CAA          0.2240     0.3960    -0.0010 cd         1 431       0.212900
     12 CAG          1.6900     0.1560    -0.0060 ca         1 431      -0.080800
     13 CAI          2.2070    -1.1620     0.0040 ca         1 431      -0.068000
     14 CAK          3.5940    -1.3930    -0.0000 ca         1 431      -0.120000
     15 CAM          4.4960    -0.3170    -0.0160 ca         1 431      -0.049300
     16 CAP          5.9960    -0.5690    -0.0170 c3         1 431      -0.052800
     17 CAL          3.9950     0.9950    -0.0230 ca         1 431      -0.120000
     18 CAJ          2.6090     1.2310    -0.0190 ca         1 431      -0.068000
     19 H1           0.1210     2.5580    -0.0200 ha         1 431       0.213000
     20 H2          -4.6060     1.3820     0.0120 ha         1 431       0.138000
     21 H3          -5.8110    -0.7900     0.0370 ha         1 431       0.122000
     22 H4          -4.5360    -2.9340     0.0500 ha         1 431       0.119000
     23 H5          -2.0410    -2.8930     0.0380 ha         1 431       0.132000
     24 H6           1.5420    -2.0220     0.0160 ha         1 431       0.124500
     25 H7           3.9660    -2.4160     0.0090 ha         1 431       0.117000
     26 H8           6.3830    -0.6220     1.0070 hc         1 431       0.047033
     27 H9           6.2430    -1.5120    -0.5190 hc         1 431       0.047033
     28 H10          6.5350     0.2310    -0.5390 hc         1 431       0.047033
     29 H11          4.6810     1.8390    -0.0310 ha         1 431       0.117000
     30 H12          2.2660     2.2610    -0.0250 ha         1 431       0.124500
@<TRIPOS>BOND
     1     1     2 1   
     2     1    11 2   
     3     1    19 1   
     4     2     3 2   
     5     2     4 1   
     6     4     5 ar  
     7     4     9 ar  
     8     5     6 ar  
     9     5    20 1   
    10     6     7 ar  
    11     6    21 1   
    12     7     8 ar  
    13     7    22 1   
    14     8     9 ar  
    15     8    23 1   
    16     9    10 1   
    17    10    11 1   
    18    11    12 1   
    19    12    13 ar  
    20    12    18 ar  
    21    13    14 ar  
    22    13    24 1   
    23    14    15 ar  
    24    14    25 1   
    25    15    16 1   
    26    15    17 ar  
    27    16    26 1   
    28    16    27 1   
    29    16    28 1   
    30    17    18 ar  
    31    17    29 1   
    32    18    30 1   
@<TRIPOS>SUBSTRUCTURE
     1 431         1 TEMP              0 ****  ****    0 ROOT
