@<TRIPOS>MOLECULE
431
   30    32     1     0     0
SMALL
abcg2


@<TRIPOS>ATOM
      1 CAB         -0.3870     1.5810    -0.2370 cc         1 431      -0.391200
      2 CAD         -1.8220     1.7370    -0.2420 c          1 431       0.596900
      3 OAH         -2.3830     2.8150    -0.3940 o          1 431      -0.544100
      4 CAE         -2.5640     0.4820    -0.0620 ca         1 431      -0.227600
      5 CAN         -3.9630     0.4420    -0.0610 ca         1 431      -0.025000
      6 CAQ         -4.6280    -0.7530     0.1070 ca         1 431      -0.147000
      7 CAR         -3.9030    -1.9360     0.2760 ca         1 431      -0.058000
      8 CAO         -2.5240    -1.9250     0.2770 ca         1 431      -0.142000
      9 CAF         -1.8660    -0.7100     0.1070 ca         1 431       0.152100
     10 OAC         -0.5140    -0.7430     0.1210 os         1 431      -0.217200
     11 CAA          0.2000     0.3770    -0.0510 cd         1 431       0.212900
     12 CAG          1.6450     0.1330    -0.0280 ca         1 431      -0.080800
     13 CAI          2.1660    -1.1310    -0.3150 ca         1 431      -0.068000
     14 CAK          3.5340    -1.3410    -0.3140 ca         1 431      -0.120000
     15 CAM          4.4250    -0.3120    -0.0170 ca         1 431      -0.049300
     16 CAP          5.9030    -0.5560     0.0180 c3         1 431      -0.052800
     17 CAL          3.8980     0.9450     0.2750 ca         1 431      -0.120000
     18 CAJ          2.5330     1.1670     0.2720 ca         1 431      -0.068000
     19 H1           0.2290     2.4530    -0.4020 ha         1 431       0.213000
     20 H2          -4.5140     1.3630    -0.1940 ha         1 431       0.138000
     21 H3          -5.7090    -0.7780     0.1080 ha         1 431       0.122000
     22 H4          -4.4260    -2.8740     0.4100 ha         1 431       0.119000
     23 H5          -1.9550    -2.8360     0.4090 ha         1 431       0.132000
     24 H6           1.5110    -1.9560    -0.5600 ha         1 431       0.124500
     25 H7           3.9150    -2.3260    -0.5540 ha         1 431       0.117000
     26 H8           6.2220    -0.8400     1.0230 hc         1 431       0.047033
     27 H9           6.1920    -1.3630    -0.6540 hc         1 431       0.047033
     28 H10          6.4630     0.3380    -0.2580 hc         1 431       0.047033
     29 H11          4.5650     1.7640     0.5150 ha         1 431       0.117000
     30 H12          2.1620     2.1520     0.5250 ha         1 431       0.124500
@<TRIPOS>BOND
     1     1     2 1   
     2     1    11 2   
     3     1    19 1   
     4     2     3 2   
     5     2     4 1   
     6     4     5 ar  
     7     4     9 ar  
     8     5     6 ar  
     9     5    20 1   
    10     6     7 ar  
    11     6    21 1   
    12     7     8 ar  
    13     7    22 1   
    14     8     9 ar  
    15     8    23 1   
    16     9    10 1   
    17    10    11 1   
    18    11    12 1   
    19    12    13 ar  
    20    12    18 ar  
    21    13    14 ar  
    22    13    24 1   
    23    14    15 ar  
    24    14    25 1   
    25    15    16 1   
    26    15    17 ar  
    27    16    26 1   
    28    16    27 1   
    29    16    28 1   
    30    17    18 ar  
    31    17    29 1   
    32    18    30 1   
@<TRIPOS>SUBSTRUCTURE
     1 431         1 TEMP              0 ****  ****    0 ROOT
