@<TRIPOS>MOLECULE
433
   65    67     1     0     0
SMALL
No Charge or Current Charge


@<TRIPOS>ATOM
      1 C1A          0.6320     1.0230     9.0720 c          1 433       0.734000
      2 O1C          0.7990     2.2250     8.8930 o          1 433      -0.708500
      3 O1B          0.5230     0.5410    10.1940 o          1 433      -0.708500
      4 C1D          0.5550     0.0550     7.8220 c3         1 433       0.048000
      5 C1X         -0.8310    -0.6490     7.7910 c3         1 433      -0.096100
      6 C1Y          1.7070    -0.9870     7.8940 c3         1 433      -0.096100
      7 O1E          0.7060     0.8110     6.5780 os         1 433      -0.340100
      8 C1F          0.6780     0.2150     5.3350 ca         1 433       0.163100
      9 C1G         -0.5350     0.1030     4.6340 ca         1 433      -0.143500
     10 C1I         -0.5590    -0.4750     3.3530 ca         1 433      -0.100500
     11 C1K          0.6340    -0.9300     2.7590 ca         1 433      -0.132300
     12 C1J          1.8520    -0.7900     3.4520 ca         1 433      -0.100500
     13 C1H          1.8750    -0.2120     4.7330 ca         1 433      -0.143500
     14 C1L          0.6070    -1.5490     1.3680 c3         1 433      -0.015100
     15 C1M          0.7080    -0.4810     0.2610 c3         1 433      -0.102400
     16 C1N          0.6300    -1.0780    -1.1570 c3         1 433       0.093000
     17 N2B          0.6710    -0.0390    -2.2180 n          1 433      -0.424800
     18 C2C          2.0030     0.3140    -2.7630 c3         1 433       0.118000
     19 C2A         -0.4990     0.5860    -2.7150 c          1 433       0.670100
     20 O2A         -0.4480     1.3890    -3.6370 o          1 433      -0.629100
     21 N3A         -1.6760     0.2390    -2.0680 ns         1 433      -0.164000
     22 C3B         -3.0320     0.6220    -2.2560 ca         1 433       0.024000
     23 C3C         -3.4790     1.3460    -3.3840 ca         1 433      -0.127000
     24 C3E         -4.8350     1.6920    -3.5170 ca         1 433      -0.077000
     25 C3G         -5.7580     1.3170    -2.5290 ca         1 433      -0.133000
     26 C3F         -5.3290     0.5920    -1.4070 ca         1 433       0.148000
     27 Cl3F        -6.5170     0.1340    -0.1860 cl         1 433      -0.180000
     28 C3D         -3.9690     0.2410    -1.2680 ca         1 433       0.050000
     29 Cl3D        -3.4280    -0.6730     0.1500 cl         1 433      -0.181000
     30 C2D          2.4710    -0.6420    -3.8780 c3         1 433      -0.055100
     31 C2E          3.8720    -0.2860    -4.3860 ca         1 433      -0.105300
     32 C2F          4.0620     0.6710    -5.4120 ca         1 433       0.142000
     33 Cl2F         2.7000     1.5090    -6.1560 cl         1 433      -0.181000
     34 C2H          5.3570     0.9860    -5.8600 ca         1 433      -0.122000
     35 C2J          6.4780     0.3600    -5.2930 ca         1 433      -0.080000
     36 C2I          6.3010    -0.5840    -4.2690 ca         1 433      -0.151000
     37 C2G          5.0100    -0.9020    -3.8190 ca         1 433       0.177000
     38 F2G          4.8740    -1.8050    -2.8220 f          1 433      -0.177000
     39 H1X1        -1.6360     0.0850     7.6650 hc         1 433       0.027200
     40 H1X2        -0.8930    -1.3800     6.9760 hc         1 433       0.027200
     41 H1X3        -1.0130    -1.1900     8.7270 hc         1 433       0.027200
     42 H1Y1         2.6820    -0.4890     7.8410 hc         1 433       0.027200
     43 H1Y2         1.6650    -1.5470     8.8360 hc         1 433       0.027200
     44 H1Y3         1.6410    -1.7160     7.0790 hc         1 433       0.027200
     45 H1G1        -1.4560     0.4640     5.0840 ha         1 433       0.124000
     46 H1I1        -1.5030    -0.5640     2.8210 ha         1 433       0.093500
     47 H1J1         2.7820    -1.1240     2.9960 ha         1 433       0.093500
     48 H1H1         2.8180    -0.0960     5.2590 ha         1 433       0.124000
     49 H1L1         1.4310    -2.2660     1.2550 hc         1 433       0.035700
     50 H1L2        -0.3190    -2.1220     1.2330 hc         1 433       0.035700
     51 H1M1        -0.1020     0.2460     0.3940 hc         1 433       0.055200
     52 H1M2         1.6510     0.0680     0.3730 hc         1 433       0.055200
     53 H1N1         1.4810    -1.7580    -1.2950 h1         1 433       0.048700
     54 H1N2        -0.2760    -1.6900    -1.2590 h1         1 433       0.048700
     55 H2C1         1.9920     1.3430    -3.1440 h1         1 433       0.064200
     56 H2C2         2.7350     0.2870    -1.9450 h1         1 433       0.064200
     57 HN31        -1.5430    -0.4050    -1.3010 hn         1 433       0.170000
     58 H3C1        -2.7940     1.6420    -4.1730 ha         1 433       0.155000
     59 H3E1        -5.1700     2.2500    -4.3900 ha         1 433       0.119000
     60 H3G1        -6.8060     1.5860    -2.6340 ha         1 433       0.130000
     61 H2D1         2.4500    -1.6710    -3.4990 hc         1 433       0.069200
     62 H2D2         1.7400    -0.6250    -4.6940 hc         1 433       0.069200
     63 H2H1         5.4910     1.7220    -6.6490 ha         1 433       0.132000
     64 H2J1         7.4790     0.6080    -5.6420 ha         1 433       0.120000
     65 H2I1         7.1640    -1.0690    -3.8200 ha         1 433       0.135000
@<TRIPOS>BOND
     1     1     2 1   
     2     1     3 1   
     3     1     4 1   
     4     4     5 1   
     5     4     6 1   
     6     4     7 1   
     7     5    39 1   
     8     5    40 1   
     9     5    41 1   
    10     6    42 1   
    11     6    43 1   
    12     6    44 1   
    13     7     8 1   
    14     8     9 ar  
    15     8    13 ar  
    16     9    10 ar  
    17     9    45 1   
    18    10    11 ar  
    19    10    46 1   
    20    11    12 ar  
    21    11    14 1   
    22    12    13 ar  
    23    12    47 1   
    24    13    48 1   
    25    14    15 1   
    26    14    49 1   
    27    14    50 1   
    28    15    16 1   
    29    15    51 1   
    30    15    52 1   
    31    16    17 1   
    32    16    53 1   
    33    16    54 1   
    34    17    18 1   
    35    17    19 1   
    36    18    30 1   
    37    18    55 1   
    38    18    56 1   
    39    19    20 2   
    40    19    21 1   
    41    21    22 1   
    42    21    57 1   
    43    22    23 ar  
    44    22    28 ar  
    45    23    24 ar  
    46    23    58 1   
    47    24    25 ar  
    48    24    59 1   
    49    25    26 ar  
    50    25    60 1   
    51    26    27 1   
    52    26    28 ar  
    53    28    29 1   
    54    30    31 1   
    55    30    61 1   
    56    30    62 1   
    57    31    32 ar  
    58    31    37 ar  
    59    32    33 1   
    60    32    34 ar  
    61    34    35 ar  
    62    34    63 1   
    63    35    36 ar  
    64    35    64 1   
    65    36    37 ar  
    66    36    65 1   
    67    37    38 1   
@<TRIPOS>SUBSTRUCTURE
     1 433         1 TEMP              0 ****  ****    0 ROOT
