@<TRIPOS>MOLECULE
433
   65    67     1     0     0
SMALL
abcg2


@<TRIPOS>ATOM
      1 C1A          0.7530     1.0440     9.0230 c          1 433       0.734000
      2 O1C          0.7580     2.2590     8.7720 o          1 433      -0.708500
      3 O1B          0.7380     0.5080    10.1490 o          1 433      -0.708500
      4 C1D          0.7690     0.0450     7.8310 c3         1 433       0.048000
      5 C1X         -0.4780    -0.8320     7.8870 c3         1 433      -0.096100
      6 C1Y          2.0210    -0.8230     7.9150 c3         1 433      -0.096100
      7 O1E          0.7810     0.8520     6.6380 os         1 433      -0.340100
      8 C1F          0.7310     0.2450     5.4260 ca         1 433       0.163100
      9 C1G         -0.4910     0.0600     4.7830 ca         1 433      -0.143500
     10 C1I         -0.5380    -0.4980     3.5140 ca         1 433      -0.100500
     11 C1K          0.6230    -0.8870     2.8500 ca         1 433      -0.132300
     12 C1J          1.8390    -0.6860     3.4950 ca         1 433      -0.100500
     13 C1H          1.8990    -0.1290     4.7650 ca         1 433      -0.143500
     14 C1L          0.5650    -1.4520     1.4590 c3         1 433      -0.015100
     15 C1M          0.5970    -0.3610     0.3900 c3         1 433      -0.102400
     16 C1N          0.5360    -0.9540    -1.0140 c3         1 433       0.093000
     17 N2B          0.5750     0.0450    -2.0690 n          1 433      -0.424800
     18 C2C          1.8750     0.3440    -2.6370 c3         1 433       0.118000
     19 C2A         -0.5200     0.6300    -2.6220 c          1 433       0.670100
     20 O2A         -0.4570     1.3170    -3.6290 o          1 433      -0.629100
     21 N3A         -1.7030     0.4000    -1.9500 ns         1 433      -0.164000
     22 C3B         -2.9860     0.6870    -2.3930 ca         1 433       0.024000
     23 C3C         -3.2880     1.7070    -3.2970 ca         1 433      -0.127000
     24 C3E         -4.5980     1.9400    -3.6800 ca         1 433      -0.077000
     25 C3G         -5.6450     1.1900    -3.1700 ca         1 433      -0.133000
     26 C3F         -5.3600     0.1890    -2.2580 ca         1 433       0.148000
     27 CL3F        -6.6500    -0.7490    -1.6070 cl         1 433      -0.180000
     28 C3D         -4.0500    -0.0700    -1.8750 ca         1 433       0.050000
     29 CL3D        -3.7230    -1.3410    -0.7510 cl         1 433      -0.181000
     30 C2D          2.2280    -0.5750    -3.8120 c3         1 433      -0.055100
     31 C2E          3.6220    -0.3140    -4.3000 ca         1 433      -0.105300
     32 C2F          3.9370     0.6730    -5.2340 ca         1 433       0.142000
     33 CL2F         2.6670     1.6470    -5.9000 cl         1 433      -0.181000
     34 C2H          5.2350     0.9160    -5.6590 ca         1 433      -0.122000
     35 C2J          6.2710     0.1590    -5.1330 ca         1 433      -0.080000
     36 C2I          6.0120    -0.8240    -4.1910 ca         1 433      -0.151000
     37 C2G          4.7040    -1.0280    -3.8000 ca         1 433       0.177000
     38 F2G          4.4600    -1.9740    -2.8780 f          1 433      -0.177000
     39 H1X1        -1.3920    -0.2390     7.8200 hc         1 433       0.027200
     40 H1X2        -0.4920    -1.5700     7.0830 hc         1 433       0.027200
     41 H1X3        -0.4990    -1.3730     8.8320 hc         1 433       0.027200
     42 H1Y1         2.9300    -0.2210     7.8650 hc         1 433       0.027200
     43 H1Y2         2.0270    -1.3610     8.8620 hc         1 433       0.027200
     44 H1Y3         2.0580    -1.5640     7.1140 hc         1 433       0.027200
     45 H1G1        -1.4070     0.3630     5.2730 ha         1 433       0.124000
     46 H1I1        -1.5010    -0.6360     3.0340 ha         1 433       0.093500
     47 H1J1         2.7620    -0.9700     3.0010 ha         1 433       0.093500
     48 H1H1         2.8600     0.0270     5.2400 ha         1 433       0.124000
     49 H1L1         1.4040    -2.1360     1.3010 hc         1 433       0.035700
     50 H1L2        -0.3440    -2.0480     1.3400 hc         1 433       0.035700
     51 H1M1        -0.2330     0.3340     0.5500 hc         1 433       0.055200
     52 H1M2         1.5100     0.2320     0.4900 hc         1 433       0.055200
     53 H1N1         1.3900    -1.6190    -1.1590 h1         1 433       0.048700
     54 H1N2        -0.3400    -1.6010    -1.1290 h1         1 433       0.048700
     55 H2C1         1.9120     1.3850    -2.9540 h1         1 433       0.064200
     56 H2C2         2.6150     0.2300    -1.8420 h1         1 433       0.064200
     57 HN31        -1.6640    -0.1270    -1.0940 hn         1 433       0.170000
     58 H3C1        -2.4990     2.3240    -3.6930 ha         1 433       0.155000
     59 H3E1        -4.8060     2.7350    -4.3830 ha         1 433       0.119000
     60 H3G1        -6.6660     1.3810    -3.4680 ha         1 433       0.130000
     61 H2D1         2.1280    -1.6160    -3.5040 hc         1 433       0.069200
     62 H2D2         1.5120    -0.4150    -4.6180 hc         1 433       0.069200
     63 H2H1         5.4340     1.6870    -6.3890 ha         1 433       0.132000
     64 H2J1         7.2860     0.3390    -5.4590 ha         1 433       0.120000
     65 H2I1         6.8070    -1.4230    -3.7690 ha         1 433       0.135000
@<TRIPOS>BOND
     1     1     2 1   
     2     1     3 1   
     3     1     4 1   
     4     4     5 1   
     5     4     6 1   
     6     4     7 1   
     7     5    39 1   
     8     5    40 1   
     9     5    41 1   
    10     6    42 1   
    11     6    43 1   
    12     6    44 1   
    13     7     8 1   
    14     8     9 ar  
    15     8    13 ar  
    16     9    10 ar  
    17     9    45 1   
    18    10    11 ar  
    19    10    46 1   
    20    11    12 ar  
    21    11    14 1   
    22    12    13 ar  
    23    12    47 1   
    24    13    48 1   
    25    14    15 1   
    26    14    49 1   
    27    14    50 1   
    28    15    16 1   
    29    15    51 1   
    30    15    52 1   
    31    16    17 1   
    32    16    53 1   
    33    16    54 1   
    34    17    18 1   
    35    17    19 1   
    36    18    30 1   
    37    18    55 1   
    38    18    56 1   
    39    19    20 2   
    40    19    21 1   
    41    21    22 1   
    42    21    57 1   
    43    22    23 ar  
    44    22    28 ar  
    45    23    24 ar  
    46    23    58 1   
    47    24    25 ar  
    48    24    59 1   
    49    25    26 ar  
    50    25    60 1   
    51    26    27 1   
    52    26    28 ar  
    53    28    29 1   
    54    30    31 1   
    55    30    61 1   
    56    30    62 1   
    57    31    32 ar  
    58    31    37 ar  
    59    32    33 1   
    60    32    34 ar  
    61    34    35 ar  
    62    34    63 1   
    63    35    36 ar  
    64    35    64 1   
    65    36    37 ar  
    66    36    65 1   
    67    37    38 1   
@<TRIPOS>SUBSTRUCTURE
     1 433         1 TEMP              0 ****  ****    0 ROOT
