@<TRIPOS>MOLECULE
434
   59    64     1     0     0
SMALL
No Charge or Current Charge


@<TRIPOS>ATOM
      1 C1          -1.8360    -0.5460     1.8110 c5         1 434       0.214600
      2 C2          -2.6250    -0.1210     0.5650 ca         1 434      -0.068300
      3 O4          -1.4050     0.5690     2.6180 os         1 434      -0.425000
      4 C5          -0.2920     0.1180     3.4570 c5         1 434      -0.004000
      5 C6           0.2550    -1.1960     2.7510 c5         1 434      -0.191700
      6 C8          -0.4970    -1.1970     1.3650 c5         1 434      -0.142700
      7 C10          0.8000     1.2290     3.7110 c          1 434       0.654700
      8 C11          1.2610     0.9840     5.1050 ca         1 434      -0.067600
      9 O12          1.0890     2.2190     3.0450 o          1 434      -0.488100
     10 C13         -0.7390    -0.2630     4.9140 c          1 434       0.582700
     11 O14         -1.8110    -0.7070     5.3110 o          1 434      -0.529100
     12 C15          2.3850     1.5360     5.7420 ca         1 434      -0.055000
     13 C17          2.6260     1.2130     7.0950 ca         1 434      -0.069300
     14 C19          1.7340     0.3570     7.7830 ca         1 434      -0.128000
     15 C21          0.6030    -0.1750     7.1320 ca         1 434      -0.056000
     16 C23          0.3940     0.1520     5.7830 ca         1 434      -0.162600
     17 C24          1.8060    -1.3160     2.6590 c          1 434       0.739000
     18 O25          2.3340    -2.2680     3.2100 o          1 434      -0.703500
     19 O26          2.4570    -0.4780     2.0620 o          1 434      -0.703500
     20 C28          0.1770    -0.3310     0.2450 c          1 434       0.635100
     21 O29          0.4240     0.8690     0.2760 o          1 434      -0.530100
     22 N30          0.4220    -1.1570    -0.8450 ns         1 434      -0.146000
     23 C31          0.8980    -0.8790    -2.1530 ca         1 434       0.032000
     24 C33          1.2680    -1.9660    -2.9620 ca         1 434      -0.160500
     25 C35          1.7330    -1.7630    -4.2720 ca         1 434      -0.053000
     26 C37          1.8470    -0.4610    -4.8030 ca         1 434      -0.185500
     27 C38          2.3010    -0.2650    -6.1890 cc         1 434       0.326500
     28 C39          1.4430     0.6290    -3.9990 ca         1 434      -0.053000
     29 C41          0.9780     0.4220    -2.6880 ca         1 434      -0.160500
     30 N43          2.2890    -1.2590    -7.1350 nc         1 434      -0.306000
     31 N44          2.7630    -0.8350    -8.2840 nd         1 434      -0.144100
     32 S46          3.2510     0.7680    -8.2680 ss         1 434       0.238100
     33 C47          2.8030     0.9360    -6.5960 cd         1 434      -0.289000
     34 C49         -3.1390    -1.1070    -0.3030 ca         1 434      -0.099000
     35 C51         -3.8390    -0.7490    -1.4680 ca         1 434       0.112000
     36 C53         -4.0410     0.6110    -1.7760 ca         1 434       0.118000
     37 C55         -3.5440     1.6010    -0.9140 ca         1 434      -0.105000
     38 C57         -2.8410     1.2400     0.2490 ca         1 434      -0.056000
     39 C3           3.8400     1.7860     7.8120 c3         1 434      -0.045800
     40 Cl1         -4.4460    -2.0240    -2.5250 cl         1 434      -0.195000
     41 Cl2         -4.9120     1.0990    -3.2310 cl         1 434      -0.194000
     42 H1          -2.4280    -1.2290     2.4370 h1         1 434       0.054700
     43 H6          -0.0840    -2.0720     3.3190 hc         1 434       0.058700
     44 H8          -0.6440    -2.2250     1.0120 hc         1 434       0.064700
     45 H15          3.0540     2.2010     5.2000 ha         1 434       0.131000
     46 H19          1.9150     0.1080     8.8260 ha         1 434       0.099000
     47 H21         -0.0890    -0.8240     7.6650 ha         1 434       0.118000
     48 H30          0.1930    -2.1300    -0.6930 hn         1 434       0.148000
     49 H33          1.1970    -2.9810    -2.5750 ha         1 434       0.130500
     50 H35          2.0130    -2.6290    -4.8690 ha         1 434       0.112500
     51 H39          1.4700     1.6450    -4.3840 ha         1 434       0.112500
     52 H41          0.6660     1.2880    -2.1130 ha         1 434       0.130500
     53 H47          2.9510     1.8600    -6.0550 h4         1 434       0.172000
     54 H49         -2.9910    -2.1610    -0.0780 ha         1 434       0.126000
     55 H55         -3.6980     2.6510    -1.1500 ha         1 434       0.128000
     56 H57         -2.4560     2.0250     0.8970 ha         1 434       0.162000
     57 H31          4.7050     1.1210     7.7040 hc         1 434       0.037700
     58 H32          4.1170     2.7670     7.4080 hc         1 434       0.037700
     59 H33A         3.6470     1.9140     8.8830 hc         1 434       0.037700
@<TRIPOS>BOND
     1     1     2 1   
     2     1     3 1   
     3     1     6 1   
     4     1    42 1   
     5     2    34 ar  
     6     2    38 ar  
     7     3     4 1   
     8     4     5 1   
     9     4     7 1   
    10     4    10 1   
    11     5     6 1   
    12     5    17 1   
    13     5    43 1   
    14     6    20 1   
    15     6    44 1   
    16     7     8 1   
    17     7     9 2   
    18     8    12 ar  
    19     8    16 ar  
    20    10    11 2   
    21    10    16 1   
    22    12    13 ar  
    23    12    45 1   
    24    13    14 ar  
    25    13    39 1   
    26    14    15 ar  
    27    14    46 1   
    28    15    16 ar  
    29    15    47 1   
    30    17    18 1   
    31    17    19 1   
    32    20    21 2   
    33    20    22 1   
    34    22    23 1   
    35    22    48 1   
    36    23    24 ar  
    37    23    29 ar  
    38    24    25 ar  
    39    24    49 1   
    40    25    26 ar  
    41    25    50 1   
    42    26    27 1   
    43    26    28 ar  
    44    27    30 1   
    45    27    33 2   
    46    28    29 ar  
    47    28    51 1   
    48    29    52 1   
    49    30    31 2   
    50    31    32 1   
    51    32    33 1   
    52    33    53 1   
    53    34    35 ar  
    54    34    54 1   
    55    35    36 ar  
    56    35    40 1   
    57    36    37 ar  
    58    36    41 1   
    59    37    38 ar  
    60    37    55 1   
    61    38    56 1   
    62    39    57 1   
    63    39    58 1   
    64    39    59 1   
@<TRIPOS>SUBSTRUCTURE
     1 434         1 TEMP              0 ****  ****    0 ROOT
