@<TRIPOS>MOLECULE
434
   59    64     1     0     0
SMALL
bcc


@<TRIPOS>ATOM
      1 C1          -1.5890    -0.7740     1.7590 c5         1 434       0.191400
      2 C2          -2.2930    -0.1650     0.5790 ca         1 434      -0.068300
      3 O4          -1.2300     0.2290     2.6810 os         1 434      -0.378600
      4 C5          -0.1200    -0.1690     3.4320 c5         1 434      -0.027200
      5 C6           0.5180    -1.3790     2.7100 c5         1 434      -0.191700
      6 C8          -0.2710    -1.4980     1.4060 c5         1 434      -0.142700
      7 C10          0.8110     1.0300     3.6830 c          1 434       0.654700
      8 C11          1.1960     0.9840     5.1120 ca         1 434      -0.067600
      9 O12          1.0020     1.9490     2.9300 o          1 434      -0.488100
     10 C13         -0.5260    -0.5730     4.8570 c          1 434       0.582700
     11 O14         -1.4600    -1.2890     5.1270 o          1 434      -0.529100
     12 C15          2.1260     1.7600     5.7830 ca         1 434      -0.073000
     13 C17          2.2870     1.5840     7.1530 ca         1 434      -0.069300
     14 C19          1.4900     0.6390     7.8240 ca         1 434      -0.146000
     15 C21          0.5460    -0.1200     7.1610 ca         1 434      -0.074000
     16 C23          0.4100     0.0610     5.7890 ca         1 434      -0.162600
     17 C24          2.0430    -1.3450     2.5450 c          1 434       0.949600
     18 O25          2.5110    -2.1430     1.7160 o          1 434      -0.808800
     19 O26          2.6650    -0.5640     3.2890 o          1 434      -0.808800
     20 C28          0.4220    -0.8200     0.2430 c          1 434       0.702100
     21 O29          1.0020     0.2390     0.3640 o          1 434      -0.530100
     22 N30          0.2680    -1.4730    -0.9390 ns         1 434      -0.472100
     23 C31          0.7060    -1.0840    -2.2040 ca         1 434       0.124600
     24 C33          0.8070    -2.0750    -3.1820 ca         1 434      -0.178500
     25 C35          1.2160    -1.7700    -4.4650 ca         1 434      -0.071000
     26 C37          1.5430    -0.4600    -4.8160 ca         1 434      -0.185500
     27 C38          2.0000    -0.1360    -6.1690 cc         1 434       0.391800
     28 C39          1.4230     0.5270    -3.8400 ca         1 434      -0.071000
     29 C41          1.0110     0.2330    -2.5520 ca         1 434      -0.178500
     30 N43          1.9060    -1.0650    -7.1640 nc         1 434      -0.306000
     31 N44          2.3310    -0.6920    -8.2940 nd         1 434      -0.144100
     32 S46          2.9060     0.8850    -8.2450 ss         1 434       0.093200
     33 C47          2.5520     1.0390    -6.6080 cd         1 434      -0.227400
     34 C49         -3.1330    -0.9680    -0.1790 ca         1 434      -0.117000
     35 C51         -3.7330    -0.4740    -1.3260 ca         1 434       0.020400
     36 C53         -3.5050     0.8400    -1.7180 ca         1 434       0.026400
     37 C55         -2.6790     1.6490    -0.9540 ca         1 434      -0.123000
     38 C57         -2.0730     1.1510     0.1870 ca         1 434      -0.074000
     39 C3           3.3060     2.3740     7.9150 c3         1 434      -0.045800
     40 CL1         -4.7600    -1.5020    -2.2520 cl         1 434      -0.103400
     41 CL2         -4.2400     1.4750    -3.1400 cl         1 434      -0.102400
     42 H1          -2.2560    -1.5060     2.2330 h1         1 434       0.054700
     43 H6           0.3020    -2.2840     3.2880 hc         1 434       0.058700
     44 H8          -0.4820    -2.5420     1.1740 hc         1 434       0.064700
     45 H15          2.7230     2.4900     5.2500 ha         1 434       0.149000
     46 H19          1.6180     0.5140     8.8930 ha         1 434       0.117000
     47 H21         -0.0670    -0.8330     7.6970 ha         1 434       0.136000
     48 H30         -0.1420    -2.3920    -0.8940 hn         1 434       0.314500
     49 H33          0.5700    -3.1030    -2.9310 ha         1 434       0.148500
     50 H35          1.2910    -2.5640    -5.1950 ha         1 434       0.130500
     51 H39          1.6410     1.5600    -4.0810 ha         1 434       0.130500
     52 H41          0.9190     1.0320    -1.8350 ha         1 434       0.148500
     53 H47          2.7590     1.9370    -6.0470 h4         1 434       0.190000
     54 H49         -3.3240    -1.9920     0.1180 ha         1 434       0.144000
     55 H55         -2.5070     2.6720    -1.2580 ha         1 434       0.146000
     56 H57         -1.4220     1.7930     0.7630 ha         1 434       0.180000
     57 H31          4.2050     1.7770     8.0810 hc         1 434       0.037700
     58 H32          3.6030     3.2720     7.3770 hc         1 434       0.037700
     59 H33A         2.9290     2.6680     8.8950 hc         1 434       0.037700
@<TRIPOS>BOND
     1     1     2 1   
     2     1     3 1   
     3     1     6 1   
     4     1    42 1   
     5     2    34 ar  
     6     2    38 ar  
     7     3     4 1   
     8     4     5 1   
     9     4     7 1   
    10     4    10 1   
    11     5     6 1   
    12     5    17 1   
    13     5    43 1   
    14     6    20 1   
    15     6    44 1   
    16     7     8 1   
    17     7     9 2   
    18     8    12 ar  
    19     8    16 ar  
    20    10    11 2   
    21    10    16 1   
    22    12    13 ar  
    23    12    45 1   
    24    13    14 ar  
    25    13    39 1   
    26    14    15 ar  
    27    14    46 1   
    28    15    16 ar  
    29    15    47 1   
    30    17    18 1   
    31    17    19 1   
    32    20    21 2   
    33    20    22 1   
    34    22    23 1   
    35    22    48 1   
    36    23    24 ar  
    37    23    29 ar  
    38    24    25 ar  
    39    24    49 1   
    40    25    26 ar  
    41    25    50 1   
    42    26    27 1   
    43    26    28 ar  
    44    27    30 1   
    45    27    33 2   
    46    28    29 ar  
    47    28    51 1   
    48    29    52 1   
    49    30    31 2   
    50    31    32 1   
    51    32    33 1   
    52    33    53 1   
    53    34    35 ar  
    54    34    54 1   
    55    35    36 ar  
    56    35    40 1   
    57    36    37 ar  
    58    36    41 1   
    59    37    38 ar  
    60    37    55 1   
    61    38    56 1   
    62    39    57 1   
    63    39    58 1   
    64    39    59 1   
@<TRIPOS>SUBSTRUCTURE
     1 434         1 TEMP              0 ****  ****    0 ROOT
