@<TRIPOS>MOLECULE
435
   45    47     1     0     0
SMALL
No Charge or Current Charge


@<TRIPOS>ATOM
      1 C1           5.5910    -1.2040     0.6480 ca         1 435      -0.151800
      2 C2           4.1910    -1.0550     0.6950 ca         1 435      -0.029500
      3 C3           3.5310    -0.2180    -0.2200 ca         1 435       0.030400
      4 C4           4.2740     0.4710    -1.1950 ca         1 435      -0.029500
      5 C5           5.6760     0.3350    -1.2590 ca         1 435      -0.151800
      6 C6           6.3320    -0.5070    -0.3310 ca         1 435       0.171100
      7 O7           7.6900    -0.6510    -0.3780 oh         1 435      -0.530100
      8 C8           6.4510     1.1010    -2.3300 c3         1 435      -0.041300
      9 N9           2.1310    -0.0790    -0.1700 ne         1 435      -0.177400
     10 N10          1.6990     0.8570     0.5650 nf         1 435      -0.224400
     11 C11          0.2920     0.9990     0.6180 ca         1 435       0.140400
     12 C12         -0.3680     1.8360    -0.2990 ca         1 435      -0.108000
     13 C13         -1.7650     1.9830    -0.2470 ca         1 435      -0.011500
     14 C14         -2.5100     1.2920     0.7310 ca         1 435      -0.281500
     15 C15         -1.8470     0.4540     1.6530 ca         1 435      -0.011500
     16 C16         -0.4500     0.3120     1.5940 ca         1 435      -0.108000
     17 S17         -4.3020     1.4620     0.7910 sy         1 435       1.192600
     18 O18         -4.8340     0.9970     2.0760 o          1 435      -0.527500
     19 O19         -4.6860     2.7520     0.2120 o          1 435      -0.527500
     20 N20         -4.8890     0.3890    -0.3420 nu         1 435      -0.889000
     21 C21         -4.4830    -0.8950    -0.5530 ca         1 435       0.615900
     22 N22         -4.2370    -1.6300     0.5380 nb         1 435      -0.731000
     23 C23         -3.8480    -2.9120     0.3590 ca         1 435       0.385900
     24 C24         -3.7040    -3.4970    -0.9100 ca         1 435      -0.195000
     25 C25         -3.9780    -2.7280    -2.0500 ca         1 435      -0.041000
     26 C26         -4.3800    -1.3970    -1.8590 ca         1 435      -0.199000
     27 C27          6.2860    -2.1180     1.6560 c3         1 435      -0.041300
     28 H2           3.6090    -1.5870     1.4450 ha         1 435       0.132000
     29 H4           3.7550     1.1140    -1.9010 ha         1 435       0.132000
     30 HO7          8.0310    -0.1000    -1.1110 ho         1 435       0.472000
     31 H8           7.1770     1.7890    -1.8800 hc         1 435       0.044867
     32 H8A          6.9930     0.4170    -2.9950 hc         1 435       0.044867
     33 H8B          5.7860     1.7030    -2.9610 hc         1 435       0.044867
     34 H12          0.2040     2.3710    -1.0530 ha         1 435       0.134000
     35 H13         -2.2610     2.6320    -0.9680 ha         1 435       0.140000
     36 H15         -2.4090    -0.0930     2.4080 ha         1 435       0.140000
     37 H16          0.0570    -0.3360     2.3040 ha         1 435       0.134000
     38 HN20        -5.0010     0.9390    -1.1760 hn         1 435       0.516000
     39 H23         -3.6480    -3.4890     1.2610 h4         1 435       0.024100
     40 H24         -3.3890    -4.5330    -0.9980 ha         1 435       0.129000
     41 H25         -3.8820    -3.1490    -3.0500 ha         1 435       0.121000
     42 H26         -4.6060    -0.7660    -2.7120 ha         1 435       0.128000
     43 H27          6.8260    -2.9260     1.1470 hc         1 435       0.044867
     44 H27A         7.0100    -1.5580     2.2600 hc         1 435       0.044867
     45 H27B         5.5730    -2.5840     2.3460 hc         1 435       0.044867
@<TRIPOS>BOND
     1     1     2 ar  
     2     1     6 ar  
     3     1    27 1   
     4     2     3 ar  
     5     2    28 1   
     6     3     4 ar  
     7     3     9 1   
     8     4     5 ar  
     9     4    29 1   
    10     5     6 ar  
    11     5     8 1   
    12     6     7 1   
    13     7    30 1   
    14     8    31 1   
    15     8    32 1   
    16     8    33 1   
    17     9    10 2   
    18    10    11 1   
    19    11    12 ar  
    20    11    16 ar  
    21    12    13 ar  
    22    12    34 1   
    23    13    14 ar  
    24    13    35 1   
    25    14    15 ar  
    26    14    17 1   
    27    15    16 ar  
    28    15    36 1   
    29    16    37 1   
    30    17    18 2   
    31    17    19 2   
    32    17    20 1   
    33    20    21 1   
    34    20    38 1   
    35    21    22 ar  
    36    21    26 ar  
    37    22    23 ar  
    38    23    24 ar  
    39    23    39 1   
    40    24    25 ar  
    41    24    40 1   
    42    25    26 ar  
    43    25    41 1   
    44    26    42 1   
    45    27    43 1   
    46    27    44 1   
    47    27    45 1   
@<TRIPOS>SUBSTRUCTURE
     1 435         1 TEMP              0 ****  ****    0 ROOT
