@<TRIPOS>MOLECULE
435
   45    47     1     0     0
SMALL
bcc


@<TRIPOS>ATOM
      1 C1           5.7670    -1.2480     0.7350 ca         1 435      -0.151800
      2 C2           4.4110    -1.0380     0.9150 ca         1 435      -0.047500
      3 C3           3.7190    -0.0720     0.1870 ca         1 435       0.030400
      4 C4           4.4080     0.7070    -0.7460 ca         1 435      -0.047500
      5 C5           5.7620     0.5300    -0.9530 ca         1 435      -0.151800
      6 C6           6.4330    -0.4550    -0.2060 ca         1 435       0.171100
      7 O7           7.7470    -0.6820    -0.3570 oh         1 435      -0.491100
      8 C8           6.5120     1.3630    -1.9520 c3         1 435      -0.041300
      9 N9           2.3560     0.0290     0.4620 ne         1 435      -0.177400
     10 N10          1.7230     0.8640    -0.2030 nf         1 435      -0.224400
     11 C11          0.3530     0.9400     0.1010 ca         1 435       0.140400
     12 C12         -0.3980     1.7690    -0.7290 ca         1 435      -0.126000
     13 C13         -1.7600     1.9140    -0.5320 ca         1 435      -0.029500
     14 C14         -2.3640     1.2220     0.5090 ca         1 435      -0.281500
     15 C15         -1.6280     0.4010     1.3560 ca         1 435      -0.029500
     16 C16         -0.2690     0.2630     1.1530 ca         1 435      -0.126000
     17 S17         -4.1070     1.4050     0.7390 sy         1 435       1.334200
     18 O18         -4.4650     0.9080     2.0510 o          1 435      -0.598300
     19 O19         -4.4860     2.7560     0.3580 o          1 435      -0.598300
     20 N20         -4.8060     0.4610    -0.4330 nu         1 435      -0.833800
     21 C21         -4.6060    -0.9050    -0.5870 ca         1 435       0.681200
     22 N22         -3.9330    -1.5300     0.3600 nb         1 435      -0.731000
     23 C23         -3.7330    -2.8390     0.2270 ca         1 435       0.451200
     24 C24         -4.1980    -3.5760    -0.8450 ca         1 435      -0.278300
     25 C25         -4.9070    -2.9030    -1.8360 ca         1 435      -0.059000
     26 C26         -5.1190    -1.5450    -1.7180 ca         1 435      -0.282300
     27 C27          6.5120    -2.2880     1.5180 c3         1 435      -0.041300
     28 H2           3.8640    -1.6350     1.6350 ha         1 435       0.150000
     29 H4           3.8770     1.4610    -1.3120 ha         1 435       0.150000
     30 HO7          8.1300    -0.1150    -1.0370 ho         1 435       0.433000
     31 H8           7.3280     1.9250    -1.4900 hc         1 435       0.044867
     32 H8A          6.9420     0.7560    -2.7530 hc         1 435       0.044867
     33 H8B          5.8500     2.0880    -2.4220 hc         1 435       0.044867
     34 H12          0.0960     2.2970    -1.5340 ha         1 435       0.152000
     35 H13         -2.3310     2.5590    -1.1860 ha         1 435       0.158000
     36 H15         -2.1080    -0.1290     2.1650 ha         1 435       0.158000
     37 H16          0.3110    -0.3710     1.8080 ha         1 435       0.152000
     38 HN20        -5.1850     0.9790    -1.2150 hn         1 435       0.460800
     39 H23         -3.1730    -3.3160     1.0230 h4         1 435       0.024100
     40 H24         -4.0100    -4.6380    -0.9070 ha         1 435       0.147000
     41 H25         -5.2920    -3.4350    -2.6960 ha         1 435       0.139000
     42 H26         -5.6610    -0.9920    -2.4730 ha         1 435       0.146000
     43 H27          7.0060    -3.0090     0.8660 hc         1 435       0.044867
     44 H27A         7.2850    -1.8420     2.1460 hc         1 435       0.044867
     45 H27B         5.8330    -2.8380     2.1680 hc         1 435       0.044867
@<TRIPOS>BOND
     1     1     2 ar  
     2     1     6 ar  
     3     1    27 1   
     4     2     3 ar  
     5     2    28 1   
     6     3     4 ar  
     7     3     9 1   
     8     4     5 ar  
     9     4    29 1   
    10     5     6 ar  
    11     5     8 1   
    12     6     7 1   
    13     7    30 1   
    14     8    31 1   
    15     8    32 1   
    16     8    33 1   
    17     9    10 2   
    18    10    11 1   
    19    11    12 ar  
    20    11    16 ar  
    21    12    13 ar  
    22    12    34 1   
    23    13    14 ar  
    24    13    35 1   
    25    14    15 ar  
    26    14    17 1   
    27    15    16 ar  
    28    15    36 1   
    29    16    37 1   
    30    17    18 2   
    31    17    19 2   
    32    17    20 1   
    33    20    21 1   
    34    20    38 1   
    35    21    22 ar  
    36    21    26 ar  
    37    22    23 ar  
    38    23    24 ar  
    39    23    39 1   
    40    24    25 ar  
    41    24    40 1   
    42    25    26 ar  
    43    25    41 1   
    44    26    42 1   
    45    27    43 1   
    46    27    44 1   
    47    27    45 1   
@<TRIPOS>SUBSTRUCTURE
     1 435         1 TEMP              0 ****  ****    0 ROOT
