@<TRIPOS>MOLECULE
436
  114   119     1     0     0
SMALL
bcc


@<TRIPOS>ATOM
      1 C0          -2.2790     2.0230    -6.3430 c3         1 436       0.154100
      2 N1          -3.1860     1.9980    -5.2140 n7         1 436      -0.802700
      3 CA1         -2.5300     1.8810    -3.9300 c3         1 436       0.101000
      4 C1          -3.5830     1.7160    -2.8430 c          1 436       0.679100
      5 N2          -3.2280     0.8790    -1.8520 ns         1 436      -0.561900
      6 CA2         -3.9060     0.7810    -0.5870 c3         1 436       0.041200
      7 C2          -2.9210     1.1690     0.5190 c          1 436       0.679100
      8 N3          -3.4040     1.3520     1.7560 n          1 436      -0.453300
      9 O1          -4.6320     2.3420    -2.8630 o          1 436      -0.599600
     10 O2          -1.7260     1.2580     0.2510 o          1 436      -0.657100
     11 CD3         -4.7860     1.6090     2.1130 c5         1 436       0.059000
     12 CG3         -4.6610     2.8920     2.9390 c5         1 436       0.127600
     13 CB3         -3.3920     2.6390     3.7470 c5         1 436      -0.094900
     14 CA3         -2.5220     1.7210     2.8700 c5         1 436       0.103200
     15 CB4         -1.9950     0.5020     3.6570 c3         1 436      -0.007700
     16 CG4         -1.6680    -0.7100     2.8520 cc         1 436      -0.117900
     17 CD2         -2.5680    -1.7860     2.5620 ca         1 436      -0.121800
     18 CE2         -1.8610    -2.7260     1.7790 ca         1 436      -0.021700
     19 NE1         -0.5930    -2.2630     1.6330 na         1 436      -0.154900
     20 CD1         -0.4790    -1.0450     2.2580 cd         1 436      -0.003600
     21 CZ2         -2.4540    -3.8900     1.2890 ca         1 436      -0.191500
     22 CH2         -3.7720    -4.0800     1.6240 ca         1 436       0.160900
     23 CZ3         -4.5060    -3.1950     2.4180 ca         1 436      -0.199000
     24 CE3         -3.9020    -2.0460     2.8890 ca         1 436      -0.059000
     25 F           -4.3980    -5.1850     1.1700 f          1 436      -0.144900
     26 CB1         -1.6380     3.0650    -3.5300 c3         1 436      -0.132600
     27 CB2         -4.4660    -0.6260    -0.3420 c3         1 436      -0.085400
     28 CG2         -5.4550    -1.0540    -1.4130 c3         1 436      -0.087100
     29 OG3         -5.7470     3.1470     3.7850 oh         1 436      -0.581800
     30 N6           2.9720     3.0670    -2.4780 n7         1 436      -0.802700
     31 CA6          2.4010     1.7490    -2.5860 c3         1 436       0.101000
     32 N7           2.8760    -0.4580    -1.7400 ns         1 436      -0.561900
     33 CA7          3.6280    -1.6070    -1.2940 c3         1 436       0.041200
     34 N8           3.5390    -2.6140     0.9500 n          1 436      -0.453300
     35 O6           4.6200     0.9340    -2.1100 o          1 436      -0.599600
     36 O7           1.6330    -2.3000    -0.2180 o          1 436      -0.657100
     37 CD8          4.9620    -2.8690     1.0410 c5         1 436       0.059000
     38 CG8          4.9890    -4.2160     1.7710 c5         1 436       0.127600
     39 CB8          3.8520    -4.0830     2.7820 c5         1 436      -0.094900
     40 CA8          2.8620    -3.0830     2.1610 c5         1 436       0.103200
     41 CG9          2.0490    -0.6630     2.4610 cc         1 436      -0.117900
     42 CD7          2.8790     0.4140     2.0100 ca         1 436      -0.121800
     43 CE7          2.0310     1.3840     1.4300 ca         1 436      -0.021700
     44 NE6          0.7560     0.9350     1.5500 na         1 436      -0.154900
     45 CD6          0.7650    -0.3020     2.1450 cd         1 436      -0.003600
     46 CZ7          2.5190     2.5550     0.8490 ca         1 436      -0.191500
     47 CH7          3.8810     2.7210     0.8800 ca         1 436       0.160900
     48 CZ8          4.7570     1.8040     1.4660 ca         1 436      -0.199000
     49 CE8          4.2570     0.6500     2.0330 ca         1 436      -0.059000
     50 F5           4.4110     3.8350     0.3440 f          1 436      -0.144900
     51 CB6          1.9390     1.3450    -3.9960 c3         1 436      -0.132600
     52 CB7          3.7930    -2.6640    -2.3940 c3         1 436      -0.085400
     53 CG7          4.5330    -2.1480    -3.6190 c3         1 436      -0.087100
     54 OG8          6.1980    -4.4980     2.4190 oh         1 436      -0.581800
     55 H1          -1.5680     2.8590    -6.3550 h1         1 436       0.028533
     56 H2          -1.6980     1.0990    -6.3700 h1         1 436       0.028533
     57 H3          -2.8540     2.0710    -7.2670 h1         1 436       0.028533
     58 H4          -3.7710     2.8240    -5.2220 hn         1 436       0.378800
     59 H6          -1.9080     0.9800    -3.9630 h1         1 436       0.066700
     60 H7          -2.3130     0.4560    -1.8990 hn         1 436       0.328000
     61 H8          -4.7360     1.4900    -0.6170 h1         1 436       0.092200
     62 H9          -5.4280     1.7270     1.2440 h1         1 436       0.064200
     63 H10         -5.1960     0.8000     2.7260 h1         1 436       0.064200
     64 H11         -4.4940     3.7230     2.2420 h1         1 436       0.039200
     65 H12         -2.8760     3.5590     4.0170 hc         1 436       0.069200
     66 H13         -3.6650     2.1290     4.6740 hc         1 436       0.069200
     67 H14         -1.6730     2.2720     2.4660 h1         1 436       0.070200
     68 H15         -1.1190     0.8360     4.2200 hc         1 436       0.054700
     69 H16         -2.7400     0.2250     4.4090 hc         1 436       0.054700
     70 H17          0.1140    -2.5990     0.9880 hn         1 436       0.341200
     71 H18         -1.9140    -4.6050     0.6810 ha         1 436       0.153000
     72 H19         -5.5400    -3.4150     2.6510 ha         1 436       0.146500
     73 H20         -4.4710    -1.3580     3.5020 ha         1 436       0.131000
     74 H21         -1.1970     2.9110    -2.5430 hc         1 436       0.044367
     75 H22         -0.8200     3.1950    -4.2370 hc         1 436       0.044367
     76 H23         -2.2140     3.9920    -3.5000 hc         1 436       0.044367
     77 H24         -3.6400    -1.3410    -0.2810 hc         1 436       0.050450
     78 H25         -4.9490    -0.6500     0.6350 hc         1 436       0.050450
     79 H26         -6.2820    -0.3480    -1.4960 hc         1 436       0.039867
     80 H27         -4.9810    -1.1300    -2.3920 hc         1 436       0.039867
     81 H28         -5.8750    -2.0310    -1.1740 hc         1 436       0.039867
     82 H29         -6.4680     3.5060     3.2600 ho         1 436       0.411000
     83 H30          1.5710     4.1680    -3.7000 h1         1 436       0.028533
     84 H31          1.2550     4.1320    -1.9650 h1         1 436       0.028533
     85 H32          2.5800     5.1000    -2.5950 h1         1 436       0.028533
     86 H35          1.5320     1.7160    -1.9160 h1         1 436       0.066700
     87 H37          4.6060    -1.2450    -0.9770 h1         1 436       0.092200
     88 H38          5.4410    -2.9150     0.0650 h1         1 436       0.064200
     89 H39          5.4700    -2.1060     1.6390 h1         1 436       0.064200
     90 H40          4.7400    -4.9970     1.0400 h1         1 436       0.039200
     91 H41          3.3820    -5.0400     3.0060 hc         1 436       0.069200
     92 H42          4.2550    -3.6890     3.7190 hc         1 436       0.069200
     93 H43          1.9380    -3.5840     1.8740 h1         1 436       0.070200
     94 H46         -0.0770     1.3000     1.0920 hn         1 436       0.341200
     95 H47          1.8740     3.2890     0.3840 ha         1 436       0.153000
     96 H48          5.8200     2.0060     1.4650 ha         1 436       0.146500
     97 H49          4.9350    -0.0590     2.4930 ha         1 436       0.131000
     98 H50          2.7840     1.3250    -4.6870 hc         1 436       0.044367
     99 H51          1.4740     0.3580    -4.0040 hc         1 436       0.044367
    100 H52          1.2060     2.0510    -4.3860 hc         1 436       0.044367
    101 H53          4.3300    -3.5220    -1.9790 hc         1 436       0.050450
    102 H54          2.8040    -3.0290    -2.6810 hc         1 436       0.050450
    103 H55          3.9840    -1.3440    -4.1080 hc         1 436       0.039867
    104 H56          5.5220    -1.7710    -3.3590 hc         1 436       0.039867
    105 H57          4.6600    -2.9470    -4.3490 hc         1 436       0.039867
    106 H58          6.8500    -4.7460     1.7560 ho         1 436       0.411000
    107 CB9          2.5370    -1.9130     3.1150 c3         1 436      -0.007700
    108 C7           2.8560    -2.2080    -0.1240 c          1 436       0.679100
    109 H36          1.8720    -0.5540    -1.7380 hn         1 436       0.328000
    110 C6           3.4200     0.7190    -2.1000 c          1 436       0.679100
    111 H44          1.8160    -2.2790     3.8510 hc         1 436       0.054700
    112 H45          3.4410    -1.6700     3.6800 hc         1 436       0.054700
    113 H33          3.7820     3.1470    -3.0770 hn         1 436       0.378800
    114 C5           2.0530     4.1540    -2.7120 c3         1 436       0.154100
@<TRIPOS>BOND
     1     1     2 1   
     2     1    55 1   
     3     1    56 1   
     4     1    57 1   
     5     2     3 1   
     6     2    58 1   
     7     3     4 1   
     8     3    26 1   
     9     3    59 1   
    10     4     5 1   
    11     4     9 2   
    12     5     6 1   
    13     5    60 1   
    14     6     7 1   
    15     6    27 1   
    16     6    61 1   
    17     7     8 1   
    18     7    10 2   
    19     8    11 1   
    20     8    14 1   
    21    11    12 1   
    22    11    62 1   
    23    11    63 1   
    24    12    13 1   
    25    12    29 1   
    26    12    64 1   
    27    13    14 1   
    28    13    65 1   
    29    13    66 1   
    30    14    15 1   
    31    14    67 1   
    32    15    16 1   
    33    15    68 1   
    34    15    69 1   
    35    16    17 1   
    36    16    20 2   
    37    17    18 ar  
    38    17    24 ar  
    39    18    19 1   
    40    18    21 ar  
    41    19    20 1   
    42    19    70 1   
    43    20    45 1   
    44    21    22 ar  
    45    21    71 1   
    46    22    23 ar  
    47    22    25 1   
    48    23    24 ar  
    49    23    72 1   
    50    24    73 1   
    51    26    74 1   
    52    26    75 1   
    53    26    76 1   
    54    27    28 1   
    55    27    77 1   
    56    27    78 1   
    57    28    79 1   
    58    28    80 1   
    59    28    81 1   
    60    29    82 1   
    61    30    31 1   
    62    30   113 1   
    63    30   114 1   
    64    31    51 1   
    65    31    86 1   
    66    31   110 1   
    67    32    33 1   
    68    32   109 1   
    69    32   110 1   
    70    33    52 1   
    71    33    87 1   
    72    33   108 1   
    73    34    37 1   
    74    34    40 1   
    75    34   108 1   
    76    35   110 2   
    77    36   108 2   
    78    37    38 1   
    79    37    88 1   
    80    37    89 1   
    81    38    39 1   
    82    38    54 1   
    83    38    90 1   
    84    39    40 1   
    85    39    91 1   
    86    39    92 1   
    87    40    93 1   
    88    40   107 1   
    89    41    42 1   
    90    41    45 2   
    91    41   107 1   
    92    42    43 ar  
    93    42    49 ar  
    94    43    44 1   
    95    43    46 ar  
    96    44    45 1   
    97    44    94 1   
    98    46    47 ar  
    99    46    95 1   
   100    47    48 ar  
   101    47    50 1   
   102    48    49 ar  
   103    48    96 1   
   104    49    97 1   
   105    51    98 1   
   106    51    99 1   
   107    51   100 1   
   108    52    53 1   
   109    52   101 1   
   110    52   102 1   
   111    53   103 1   
   112    53   104 1   
   113    53   105 1   
   114    54   106 1   
   115    83   114 1   
   116    84   114 1   
   117    85   114 1   
   118   107   111 1   
   119   107   112 1   
@<TRIPOS>SUBSTRUCTURE
     1 436         1 TEMP              0 ****  ****    0 ROOT
