@<TRIPOS>MOLECULE
436
  114   119     1     0     0
SMALL
No Charge or Current Charge


@<TRIPOS>ATOM
      1 C0          -0.2020    -3.0420    -5.3110 c3         1 436       0.154100
      2 N1          -1.3170    -2.2980    -4.6880 n7         1 436      -0.857900
      3 CA1         -0.9600    -1.0780    -3.8920 c3         1 436       0.101000
      4 C1          -2.1550    -0.5200    -3.0390 c          1 436       0.612100
      5 N2          -1.9340    -0.4760    -1.6800 ns         1 436      -0.494900
      6 CA2         -2.8670     0.0730    -0.6710 c3         1 436       0.041200
      7 C2          -2.0880     1.0020     0.3170 c          1 436       0.612100
      8 N3          -2.7960     1.6350     1.3650 n          1 436      -0.386300
      9 O1          -3.2100    -0.1400    -3.5360 o          1 436      -0.599600
     10 O2          -0.8760     1.1570     0.2170 o          1 436      -0.657100
     11 CD3         -4.1330     2.2300     1.1230 c5         1 436       0.059000
     12 CG3         -3.9270     3.6750     1.6510 c5         1 436       0.150800
     13 CB3         -3.1400     3.3700     2.9410 c5         1 436      -0.094900
     14 CA3         -2.0600     2.3650     2.4340 c5         1 436       0.103200
     15 CB4         -1.5070     1.4630     3.5830 c3         1 436      -0.007700
     16 CG4         -1.3580    -0.0140     3.2670 cc         1 436      -0.117900
     17 CD2         -2.4310    -0.9660     3.3930 ca         1 436      -0.121800
     18 CE2         -1.9390    -2.2100     3.1110 ca         1 436      -0.021700
     19 NE1         -0.5980    -2.1460     2.8000 na         1 436      -0.205200
     20 CD1         -0.2490    -0.7800     2.8700 cd         1 436      -0.003600
     21 CZ2         -2.7610    -3.3440     3.1250 ca         1 436      -0.173500
     22 CH2         -4.1220    -3.1680     3.4420 ca         1 436       0.196000
     23 CZ3         -4.6340    -1.8860     3.7350 ca         1 436      -0.181000
     24 CE3         -3.7830    -0.7620     3.7120 ca         1 436      -0.041000
     25 F           -4.9470    -4.2380     3.4600 f          1 436      -0.180000
     26 CB1         -0.4050     0.0280    -4.8210 c3         1 436      -0.132600
     27 CB2         -3.6340    -1.0610     0.0570 c3         1 436      -0.085400
     28 CG2         -4.5320    -1.9160    -0.8600 c3         1 436      -0.087100
     29 OG3         -5.1560     4.3460     1.9280 oh         1 436      -0.644000
     30 N6           1.1930     4.4440    -0.2120 n7         1 436      -0.857900
     31 CA6          0.8850     3.5210    -1.3540 c3         1 436       0.101000
     32 N7           1.6020     1.1210    -1.3390 ns         1 436      -0.494900
     33 CA7          2.4610    -0.0740    -1.5360 c3         1 436       0.041200
     34 N8           2.6570    -2.3300    -0.3430 n          1 436      -0.386300
     35 O6           3.1130     2.6980    -1.9900 o          1 436      -0.599600
     36 O7           0.5950    -1.3990    -0.7020 o          1 436      -0.657100
     37 CD8          3.5320    -3.0990    -1.2590 c5         1 436       0.059000
     38 CG8          3.1300    -4.5640    -0.9350 c5         1 436       0.150800
     39 CB8          3.0330    -4.4760     0.6010 c5         1 436      -0.094900
     40 CA8          2.1950    -3.1770     0.7910 c5         1 436       0.103200
     41 CG9          2.2070    -1.0280     2.2390 cc         1 436      -0.117900
     42 CD7          3.2190    -0.0570     1.9060 ca         1 436      -0.121800
     43 CE7          2.6700     1.1900     2.0120 ca         1 436      -0.021700
     44 NE6          1.3520     1.1120     2.4020 na         1 436      -0.205200
     45 CD6          1.0690    -0.2630     2.5420 cd         1 436      -0.003600
     46 CZ7          3.4060     2.3440     1.7160 ca         1 436      -0.173500
     47 CH7          4.7420     2.1870     1.3000 ca         1 436       0.196000
     48 CZ8          5.3150     0.9010     1.1890 ca         1 436      -0.181000
     49 CE8          4.5500    -0.2440     1.4950 ca         1 436      -0.041000
     50 F5           5.4830     3.2770     1.0050 f          1 436      -0.180000
     51 CB6          0.6450     4.3330    -2.6490 c3         1 436      -0.132600
     52 CB7          2.7880    -0.2990    -3.0420 c3         1 436      -0.085400
     53 CG7          4.2990    -0.3320    -3.3550 c3         1 436      -0.087100
     54 OG8          4.1110    -5.5150    -1.3490 oh         1 436      -0.644000
     55 H1           0.2920    -2.4450    -6.0890 h1         1 436       0.028533
     56 H2           0.5490    -3.3210    -4.5600 h1         1 436       0.028533
     57 H3          -0.5720    -3.9640    -5.7800 h1         1 436       0.028533
     58 H4          -1.9950    -2.0330    -5.4160 hn         1 436       0.434000
     59 H6          -0.1680    -1.3370    -3.1770 h1         1 436       0.066700
     60 H7          -1.0260    -0.8040    -1.3490 hn         1 436       0.328000
     61 H8          -3.5970     0.7100    -1.1840 h1         1 436       0.092200
     62 H9          -4.4160     2.2380     0.0630 h1         1 436       0.064200
     63 H10         -4.9060     1.6930     1.6880 h1         1 436       0.064200
     64 H11         -3.3130     4.2620     0.9520 h1         1 436       0.039200
     65 H12         -2.6950     4.2680     3.3840 hc         1 436       0.069200
     66 H13         -3.7980     2.9250     3.6970 hc         1 436       0.069200
     67 H14         -1.2190     2.9160     1.9900 h1         1 436       0.070200
     68 H15         -0.5710     1.8800     3.9700 hc         1 436       0.054700
     69 H16         -2.1790     1.5290     4.4460 hc         1 436       0.054700
     70 H17         -0.0040    -2.9120     2.5200 hn         1 436       0.391500
     71 H18         -2.3690    -4.3300     2.8920 ha         1 436       0.135000
     72 H19         -5.6880    -1.7660     3.9740 ha         1 436       0.128500
     73 H20         -4.1690     0.2320     3.9250 ha         1 436       0.113000
     74 H21         -0.1700     0.9270    -4.2390 hc         1 436       0.044367
     75 H22          0.5160    -0.2920    -5.3210 hc         1 436       0.044367
     76 H23         -1.1400     0.3030    -5.5870 hc         1 436       0.044367
     77 H24         -2.9110    -1.7170     0.5540 hc         1 436       0.050450
     78 H25         -4.2640    -0.6320     0.8440 hc         1 436       0.050450
     79 H26         -5.2610    -1.2870    -1.3860 hc         1 436       0.039867
     80 H27         -3.9350    -2.4550    -1.6060 hc         1 436       0.039867
     81 H28         -5.0830    -2.6570    -0.2680 hc         1 436       0.039867
     82 H29         -5.5610     4.5770     1.0620 ho         1 436       0.450000
     83 H30         -0.1780     6.0560    -0.5040 h1         1 436       0.028533
     84 H31         -0.7920     4.7270     0.5070 h1         1 436       0.028533
     85 H32          0.4070     5.8640     1.1600 h1         1 436       0.028533
     86 H35         -0.0460     2.9830    -1.1450 h1         1 436       0.066700
     87 H37          3.3990     0.1070    -0.9970 h1         1 436       0.092200
     88 H38          3.3430    -2.8780    -2.3150 h1         1 436       0.064200
     89 H39          4.5900    -2.9060    -1.0410 h1         1 436       0.064200
     90 H40          2.1490    -4.8040    -1.3700 h1         1 436       0.039200
     91 H41          2.5480    -5.3520     1.0430 hc         1 436       0.069200
     92 H42          4.0310    -4.3940     1.0480 hc         1 436       0.069200
     93 H43          1.1240    -3.3990     0.6800 h1         1 436       0.070200
     94 H46          0.6780     1.8640     2.4080 hn         1 436       0.391500
     95 H47          2.9620     3.3320     1.7940 ha         1 436       0.135000
     96 H48          6.3460     0.7960     0.8640 ha         1 436       0.128500
     97 H49          4.9780    -1.2380     1.4000 ha         1 436       0.113000
     98 H50          1.5200     4.9460    -2.8970 hc         1 436       0.044367
     99 H51          0.4550     3.6550    -3.4890 hc         1 436       0.044367
    100 H52         -0.2260     4.9920    -2.5520 hc         1 436       0.044367
    101 H53          2.3190    -1.2260    -3.3940 hc         1 436       0.050450
    102 H54          2.3400     0.5000    -3.6450 hc         1 436       0.050450
    103 H55          4.7640     0.6310    -3.1110 hc         1 436       0.039867
    104 H56          4.8130    -1.1110    -2.7810 hc         1 436       0.039867
    105 H57          4.4640    -0.5280    -4.4210 hc         1 436       0.039867
    106 H58          4.0530    -5.5830    -2.3280 ho         1 436       0.450000
    107 CB9          2.4350    -2.5260     2.1870 c3         1 436      -0.007700
    108 C7           1.8100    -1.3200    -0.8510 c          1 436       0.612100
    109 H36          0.6930     0.9930    -0.8900 hn         1 436       0.328000
    110 C6           1.9870     2.4250    -1.5890 c          1 436       0.612100
    111 H44          1.8570    -3.0440     2.9590 hc         1 436       0.054700
    112 H45          3.4750    -2.6990     2.4860 hc         1 436       0.054700
    113 H33          2.0050     5.0240    -0.4650 hn         1 436       0.434000
    114 C5           0.0990     5.3170     0.2590 c3         1 436       0.154100
@<TRIPOS>BOND
     1     1     2 1   
     2     1    55 1   
     3     1    56 1   
     4     1    57 1   
     5     2     3 1   
     6     2    58 1   
     7     3     4 1   
     8     3    26 1   
     9     3    59 1   
    10     4     5 1   
    11     4     9 2   
    12     5     6 1   
    13     5    60 1   
    14     6     7 1   
    15     6    27 1   
    16     6    61 1   
    17     7     8 1   
    18     7    10 2   
    19     8    11 1   
    20     8    14 1   
    21    11    12 1   
    22    11    62 1   
    23    11    63 1   
    24    12    13 1   
    25    12    29 1   
    26    12    64 1   
    27    13    14 1   
    28    13    65 1   
    29    13    66 1   
    30    14    15 1   
    31    14    67 1   
    32    15    16 1   
    33    15    68 1   
    34    15    69 1   
    35    16    17 1   
    36    16    20 2   
    37    17    18 ar  
    38    17    24 ar  
    39    18    19 1   
    40    18    21 ar  
    41    19    20 1   
    42    19    70 1   
    43    20    45 1   
    44    21    22 ar  
    45    21    71 1   
    46    22    23 ar  
    47    22    25 1   
    48    23    24 ar  
    49    23    72 1   
    50    24    73 1   
    51    26    74 1   
    52    26    75 1   
    53    26    76 1   
    54    27    28 1   
    55    27    77 1   
    56    27    78 1   
    57    28    79 1   
    58    28    80 1   
    59    28    81 1   
    60    29    82 1   
    61    30    31 1   
    62    30   113 1   
    63    30   114 1   
    64    31    51 1   
    65    31    86 1   
    66    31   110 1   
    67    32    33 1   
    68    32   109 1   
    69    32   110 1   
    70    33    52 1   
    71    33    87 1   
    72    33   108 1   
    73    34    37 1   
    74    34    40 1   
    75    34   108 1   
    76    35   110 2   
    77    36   108 2   
    78    37    38 1   
    79    37    88 1   
    80    37    89 1   
    81    38    39 1   
    82    38    54 1   
    83    38    90 1   
    84    39    40 1   
    85    39    91 1   
    86    39    92 1   
    87    40    93 1   
    88    40   107 1   
    89    41    42 1   
    90    41    45 2   
    91    41   107 1   
    92    42    43 ar  
    93    42    49 ar  
    94    43    44 1   
    95    43    46 ar  
    96    44    45 1   
    97    44    94 1   
    98    46    47 ar  
    99    46    95 1   
   100    47    48 ar  
   101    47    50 1   
   102    48    49 ar  
   103    48    96 1   
   104    49    97 1   
   105    51    98 1   
   106    51    99 1   
   107    51   100 1   
   108    52    53 1   
   109    52   101 1   
   110    52   102 1   
   111    53   103 1   
   112    53   104 1   
   113    53   105 1   
   114    54   106 1   
   115    83   114 1   
   116    84   114 1   
   117    85   114 1   
   118   107   111 1   
   119   107   112 1   
@<TRIPOS>SUBSTRUCTURE
     1 436         1 TEMP              0 ****  ****    0 ROOT
