@<TRIPOS>MOLECULE
437
   57    60     1     0     0
SMALL
No Charge or Current Charge


@<TRIPOS>ATOM
      1 C1           6.4460    -0.2590    -0.6980 ca         1 437      -0.106000
      2 C2           5.6890    -1.4060    -0.9730 ca         1 437      -0.093000
      3 C3           4.2940    -1.3830    -0.8210 ca         1 437      -0.100000
      4 C4           5.8090     0.9190    -0.2730 ca         1 437      -0.026000
      5 C5           4.4010     0.9520    -0.1160 ca         1 437      -0.048000
      6 C6           3.6330    -0.2130    -0.3840 ca         1 437      -0.020000
      7 N7           2.2150    -0.1700    -0.2410 ns         1 437      -0.182000
      8 C8           1.2670    -1.1740    -0.1180 c          1 437       0.670100
      9 O9           1.5260    -2.3670    -0.0500 o          1 437      -0.588100
     10 N10         -0.0170    -0.6680    -0.0610 ns         1 437      -0.427100
     11 C11         -1.2250    -1.3530     0.0650 cc         1 437       0.018600
     12 C12         -1.4570    -2.6950     0.1270 cd         1 437      -0.215000
     13 C13         -2.8610    -2.8900     0.2330 cd         1 437       0.277300
     14 C14         -3.5630    -4.2450     0.3280 c3         1 437      -0.073300
     15 C15         -3.0520    -4.9930     1.5880 c3         1 437      -0.079767
     16 C16         -5.1110    -4.1050     0.4300 c3         1 437      -0.079767
     17 C17         -3.2270    -5.0800    -0.9360 c3         1 437      -0.079767
     18 N18         -3.5290    -1.7440     0.2440 nc         1 437      -0.507800
     19 N19         -2.5090    -0.8280     0.1330 na         1 437       0.183000
     20 C20         -2.7920     0.5400     0.1550 ca         1 437       0.017800
     21 C21         -3.6390     1.1060    -0.8190 ca         1 437      -0.111500
     22 C22         -2.2320     1.3690     1.1480 ca         1 437      -0.111500
     23 C23         -2.5110     2.7470     1.1630 ca         1 437      -0.085500
     24 C24         -3.3540     3.3130     0.1870 ca         1 437      -0.086300
     25 C25         -3.6600     4.8050     0.2060 c3         1 437       0.207900
     26 C26         -3.9170     2.4840    -0.8030 ca         1 437      -0.085500
     27 O27         -2.6960     5.5200    -0.5750 oh         1 437      -0.655000
     28 C28          3.7940     2.1570     0.3180 ca         1 437      -0.103000
     29 C29          4.5740     3.2960     0.5810 ca         1 437      -0.105000
     30 C30          5.9660     3.2520     0.4190 ca         1 437      -0.106000
     31 C31          6.5830     2.0650    -0.0070 ca         1 437      -0.095000
     32 H1           7.5260    -0.2870    -0.8210 ha         1 437       0.116000
     33 H2           6.1830    -2.3140    -1.3110 ha         1 437       0.118000
     34 H3           3.7400    -2.2840    -1.0660 ha         1 437       0.130000
     35 HN7          1.8370     0.7660    -0.2400 hn         1 437       0.154000
     36 H12         -0.7160    -3.4850     0.0980 ha         1 437       0.162000
     37 H15         -3.2600    -4.4110     2.4950 hc         1 437       0.036700
     38 H15A        -3.5400    -5.9700     1.6920 hc         1 437       0.036700
     39 H15B        -1.9700    -5.1620     1.5370 hc         1 437       0.036700
     40 H16         -5.5200    -3.5940    -0.4500 hc         1 437       0.036700
     41 H16A        -5.5900    -5.0900     0.4970 hc         1 437       0.036700
     42 H16B        -5.3980    -3.5340     1.3220 hc         1 437       0.036700
     43 H17         -2.1470    -5.2510    -1.0230 hc         1 437       0.036700
     44 H17A        -3.7210    -6.0590    -0.9050 hc         1 437       0.036700
     45 H17B        -3.5600    -4.5600    -1.8430 hc         1 437       0.036700
     46 H21         -4.0780     0.4760    -1.5890 ha         1 437       0.134000
     47 H22         -1.5860     0.9440     1.9130 ha         1 437       0.134000
     48 H23         -2.0710     3.3760     1.9340 ha         1 437       0.120500
     49 H25         -4.6710     4.9730    -0.1890 h1         1 437       0.027700
     50 H25A        -3.6500     5.1640     1.2440 h1         1 437       0.027700
     51 H26         -4.5700     2.9090    -1.5630 ha         1 437       0.120500
     52 HO27        -2.9430     6.4700    -0.5270 ho         1 437       0.444000
     53 H28          2.7190     2.2290     0.4590 ha         1 437       0.106000
     54 H29          4.0960     4.2150     0.9130 ha         1 437       0.112000
     55 H30          6.5670     4.1350     0.6240 ha         1 437       0.115000
     56 H31          7.6630     2.0370    -0.1290 ha         1 437       0.115000
     57 H261        -0.0660     0.3410    -0.1250 hn         1 437       0.326500
@<TRIPOS>BOND
     1     1     2 ar  
     2     1     4 ar  
     3     1    32 1   
     4     2     3 ar  
     5     2    33 1   
     6     3     6 ar  
     7     3    34 1   
     8     4     5 ar  
     9     4    31 ar  
    10     5     6 ar  
    11     5    28 ar  
    12     6     7 1   
    13     7     8 1   
    14     7    35 1   
    15     8     9 2   
    16     8    10 1   
    17    10    11 1   
    18    10    57 1   
    19    11    12 2   
    20    11    19 1   
    21    12    13 1   
    22    12    36 1   
    23    13    14 1   
    24    13    18 2   
    25    14    15 1   
    26    14    16 1   
    27    14    17 1   
    28    15    37 1   
    29    15    38 1   
    30    15    39 1   
    31    16    40 1   
    32    16    41 1   
    33    16    42 1   
    34    17    43 1   
    35    17    44 1   
    36    17    45 1   
    37    18    19 1   
    38    19    20 1   
    39    20    21 ar  
    40    20    22 ar  
    41    21    26 ar  
    42    21    46 1   
    43    22    23 ar  
    44    22    47 1   
    45    23    24 ar  
    46    23    48 1   
    47    24    25 1   
    48    24    26 ar  
    49    25    27 1   
    50    25    49 1   
    51    25    50 1   
    52    26    51 1   
    53    27    52 1   
    54    28    29 ar  
    55    28    53 1   
    56    29    30 ar  
    57    29    54 1   
    58    30    31 ar  
    59    30    55 1   
    60    31    56 1   
@<TRIPOS>SUBSTRUCTURE
     1 437         1 TEMP              0 ****  ****    0 ROOT
