@<TRIPOS>MOLECULE
437
   57    60     1     0     0
SMALL
abcg2


@<TRIPOS>ATOM
      1 C1           6.3330    -0.4330    -0.2970 ca         1 437      -0.106000
      2 C2           5.6110    -1.4790    -0.7980 ca         1 437      -0.093000
      3 C3           4.2210    -1.3640    -0.9860 ca         1 437      -0.100000
      4 C4           5.6890     0.7730     0.0590 ca         1 437      -0.026000
      5 C5           4.2800     0.8880    -0.0930 ca         1 437      -0.048000
      6 C6           3.5630    -0.2110    -0.6430 ca         1 437      -0.020000
      7 N7           2.1790    -0.0810    -0.8520 ns         1 437      -0.182000
      8 C8           1.2550    -0.9630    -0.3730 c          1 437       0.670100
      9 O9           1.5290    -1.9490     0.2800 o          1 437      -0.588100
     10 N10         -0.0340    -0.6200    -0.7020 ns         1 437      -0.427100
     11 C11         -1.1310    -1.3730    -0.3280 cc         1 437       0.018600
     12 C12         -1.3380    -2.7270    -0.2470 cd         1 437      -0.215000
     13 C13         -2.6930    -2.8600     0.1270 cd         1 437       0.277300
     14 C14         -3.4420    -4.1430     0.3750 c3         1 437      -0.073300
     15 C15         -2.7340    -4.9170     1.4940 c3         1 437      -0.079767
     16 C16         -4.8870    -3.8630     0.7880 c3         1 437      -0.079767
     17 C17         -3.4350    -4.9870    -0.9050 c3         1 437      -0.079767
     18 N18         -3.2660    -1.6830     0.2530 nc         1 437      -0.507800
     19 N19         -2.3080    -0.7770    -0.0030 na         1 437       0.183000
     20 C20         -2.6090     0.6000     0.0600 ca         1 437       0.017800
     21 C21         -3.7550     1.0780    -0.5690 ca         1 437      -0.111500
     22 C22         -1.7890     1.4680     0.7670 ca         1 437      -0.111500
     23 C23         -2.1120     2.8170     0.8260 ca         1 437      -0.085500
     24 C24         -3.2570     3.3100     0.2140 ca         1 437      -0.086300
     25 C25         -3.6220     4.7650     0.3050 c3         1 437       0.207900
     26 C26         -4.0730     2.4210    -0.4850 ca         1 437      -0.085500
     27 O27         -3.7290     5.2910    -1.0000 oh         1 437      -0.655000
     28 C28          3.6500     2.0890     0.3140 ca         1 437      -0.103000
     29 C29          4.3810     3.1280     0.8220 ca         1 437      -0.105000
     30 C30          5.7810     3.0220     0.9520 ca         1 437      -0.106000
     31 C31          6.4160     1.8690     0.5830 ca         1 437      -0.095000
     32 H1           7.4050    -0.5160    -0.1670 ha         1 437       0.116000
     33 H2           6.1040    -2.4020    -1.0740 ha         1 437       0.118000
     34 H3           3.6760    -2.1890    -1.4230 ha         1 437       0.130000
     35 HN7          1.8610     0.7590    -1.3110 hn         1 437       0.154000
     36 H12         -0.6200    -3.5050    -0.4390 ha         1 437       0.162000
     37 H15         -2.6860    -4.3300     2.4130 hc         1 437       0.036700
     38 H15A        -3.2690    -5.8430     1.7160 hc         1 437       0.036700
     39 H15B        -1.7140    -5.1840     1.2140 hc         1 437       0.036700
     40 H16         -5.4310    -3.3200     0.0150 hc         1 437       0.036700
     41 H16A        -5.4070    -4.8060     0.9650 hc         1 437       0.036700
     42 H16B        -4.9360    -3.2760     1.7060 hc         1 437       0.036700
     43 H17         -2.4200    -5.2320    -1.2210 hc         1 437       0.036700
     44 H17A        -3.9650    -5.9280    -0.7420 hc         1 437       0.036700
     45 H17B        -3.9250    -4.4620    -1.7270 hc         1 437       0.036700
     46 H21         -4.3940     0.3970    -1.1160 ha         1 437       0.134000
     47 H22         -0.9120     1.1030     1.2840 ha         1 437       0.134000
     48 H23         -1.4650     3.4880     1.3770 ha         1 437       0.120500
     49 H25         -4.5690     4.8600     0.8490 h1         1 437       0.027700
     50 H25A        -2.8630     5.2920     0.8970 h1         1 437       0.027700
     51 H26         -4.9720     2.7790    -0.9710 ha         1 437       0.120500
     52 HO27        -4.1460     6.1550    -0.9360 ho         1 437       0.444000
     53 H28          2.5750     2.1900     0.2360 ha         1 437       0.106000
     54 H29          3.8820     4.0360     1.1340 ha         1 437       0.112000
     55 H30          6.3470     3.8530     1.3510 ha         1 437       0.115000
     56 H31          7.4900     1.7770     0.6900 ha         1 437       0.115000
     57 H261        -0.2040     0.2020    -1.2640 hn         1 437       0.326500
@<TRIPOS>BOND
     1     1     2 ar  
     2     1     4 ar  
     3     1    32 1   
     4     2     3 ar  
     5     2    33 1   
     6     3     6 ar  
     7     3    34 1   
     8     4     5 ar  
     9     4    31 ar  
    10     5     6 ar  
    11     5    28 ar  
    12     6     7 1   
    13     7     8 1   
    14     7    35 1   
    15     8     9 2   
    16     8    10 1   
    17    10    11 1   
    18    10    57 1   
    19    11    12 2   
    20    11    19 1   
    21    12    13 1   
    22    12    36 1   
    23    13    14 1   
    24    13    18 2   
    25    14    15 1   
    26    14    16 1   
    27    14    17 1   
    28    15    37 1   
    29    15    38 1   
    30    15    39 1   
    31    16    40 1   
    32    16    41 1   
    33    16    42 1   
    34    17    43 1   
    35    17    44 1   
    36    17    45 1   
    37    18    19 1   
    38    19    20 1   
    39    20    21 ar  
    40    20    22 ar  
    41    21    26 ar  
    42    21    46 1   
    43    22    23 ar  
    44    22    47 1   
    45    23    24 ar  
    46    23    48 1   
    47    24    25 1   
    48    24    26 ar  
    49    25    27 1   
    50    25    49 1   
    51    25    50 1   
    52    26    51 1   
    53    27    52 1   
    54    28    29 ar  
    55    28    53 1   
    56    29    30 ar  
    57    29    54 1   
    58    30    31 ar  
    59    30    55 1   
    60    31    56 1   
@<TRIPOS>SUBSTRUCTURE
     1 437         1 TEMP              0 ****  ****    0 ROOT
