@<TRIPOS>MOLECULE
438
   78    82     1     0     0
SMALL
abcg2


@<TRIPOS>ATOM
      1 N1          -9.1300     2.8170    -0.2210 n8         1 438      -0.999200
      2 C2          -8.0210     2.8510     0.7160 c3         1 438       0.198100
      3 C3          -4.3840     1.9740    -0.0020 cp         1 438      -0.018000
      4 C4          -4.1810     2.6390    -1.2100 ca         1 438      -0.100000
      5 C5          -5.2160     3.3530    -1.7980 ca         1 438      -0.120000
      6 C6          -6.4630     3.4150    -1.1940 ca         1 438      -0.093000
      7 C7          -6.6880     2.7620     0.0150 ca         1 438      -0.095300
      8 C8          -5.6460     2.0460     0.5910 ca         1 438      -0.104000
      9 C9          -3.3010     1.1970     0.6330 cp         1 438      -0.048000
     10 C10         -1.9800     1.6490     0.5850 ca         1 438      -0.106000
     11 C11         -0.9740     0.9150     1.1840 ca         1 438       0.118100
     12 C12         -1.2420    -0.2780     1.8360 ca         1 438      -0.074000
     13 C13         -2.5490    -0.7350     1.8730 ca         1 438      -0.093000
     14 C14         -3.5700    -0.0060     1.2820 ca         1 438      -0.107000
     15 O15          0.3100     1.4250     1.1380 os         1 438      -0.365400
     16 N16          0.8380    -0.3400    -0.2260 nb         1 438      -0.792000
     17 C17          1.2150     0.7390     0.4050 ca         1 438       0.584300
     18 C18          2.5200     1.1950     0.3510 ca         1 438       0.013000
     19 C19          3.4590     0.5130    -0.4300 ca         1 438       0.293000
     20 C20          3.0080    -0.6430    -1.0630 ca         1 438       0.103000
     21 C21          1.6910    -1.0440    -0.9250 ca         1 438       0.659300
     22 F22          2.8780     2.2760     1.0600 f          1 438      -0.178000
     23 N23          4.7820     0.8950    -0.5590 nh         1 438      -0.835400
     24 F24          3.8540    -1.3600    -1.8110 f          1 438      -0.146000
     25 O25          1.2510    -2.1320    -1.5750 os         1 438      -0.328400
     26 C26          0.0750    -2.6810    -1.0850 ca         1 438       0.146100
     27 C27         -1.0930    -2.2730    -1.6980 ca         1 438      -0.190000
     28 C28         -2.3380    -2.7580    -1.2740 ca         1 438       0.301000
     29 N29         -3.5040    -2.3050    -1.8350 nh         1 438      -0.826400
     30 C30         -2.3280    -3.7200    -0.2470 ca         1 438      -0.204000
     31 C31         -1.1380    -4.1190     0.3270 ca         1 438      -0.057000
     32 C32          0.1040    -3.6020    -0.0400 ca         1 438      -0.160600
     33 C33          1.3510    -4.0230     0.7180 c          1 438       0.719600
     34 O34          1.2300    -5.0160     1.4660 o          1 438      -0.718500
     35 O35          2.3850    -3.3470     0.5570 o          1 438      -0.718500
     36 C36         -3.4730    -1.0770    -2.5990 c3         1 438       0.220100
     37 C37         -4.7620    -2.7110    -1.2580 c3         1 438       0.220100
     38 C38          5.1830     2.2800    -0.7530 c5         1 438       0.223800
     39 C39          6.3420     2.4800     0.2230 c5         1 438       0.146500
     40 C40          6.9880     1.0940     0.2210 c5         1 438      -0.093400
     41 C41          5.8040     0.1380     0.1650 c5         1 438       0.221800
     42 N42          7.2380     3.5450    -0.1780 n3         1 438      -0.707600
     43 C43          6.5510     4.8190    -0.2620 c3         1 438       0.152100
     44 C44          8.3830     3.6490     0.7030 c3         1 438       0.152100
     45 HN1         -9.1940     1.8950    -0.6340 hn         1 438       0.393000
     46 HN1A        -9.9960     2.9580     0.2830 hn         1 438       0.393000
     47 H2          -8.0670     3.8030     1.2550 h1         1 438       0.032700
     48 H2A         -8.0640     2.0690     1.4860 h1         1 438       0.032700
     49 H6          -7.2660     3.9690    -1.6620 ha         1 438       0.123000
     50 H8          -5.8180     1.5430     1.5370 ha         1 438       0.110000
     51 H10         -1.7350     2.5840     0.0960 ha         1 438       0.120000
     52 H12         -0.4460    -0.8530     2.2880 ha         1 438       0.150000
     53 H13         -2.7690    -1.6780     2.3530 ha         1 438       0.122000
     54 H14         -4.5820    -0.3900     1.3090 ha         1 438       0.105000
     55 H27         -1.0190    -1.5370    -2.4870 ha         1 438       0.107000
     56 H30         -3.2490    -4.1390     0.1310 ha         1 438       0.092000
     57 H31         -1.1690    -4.8510     1.1230 ha         1 438       0.130000
     58 H36         -2.9180    -1.1960    -3.5330 h1         1 438       0.025200
     59 H36A        -4.4870    -0.7900    -2.8610 h1         1 438       0.025200
     60 H36B        -3.0230    -0.2490    -2.0400 h1         1 438       0.025200
     61 H37         -4.8910    -2.3700    -0.2240 h1         1 438       0.025200
     62 H37A        -5.5770    -2.3010    -1.8500 h1         1 438       0.025200
     63 H37B        -4.8700    -3.7970    -1.2680 h1         1 438       0.025200
     64 H38          5.5450     2.4330    -1.7780 h1         1 438       0.050700
     65 H38A         4.3620     2.9760    -0.5990 h1         1 438       0.050700
     66 H39          5.9220     2.6730     1.2290 h1         1 438       0.034700
     67 H40          7.6120     0.9950    -0.6710 hc         1 438       0.052700
     68 H40A         7.6140     0.9020     1.0910 hc         1 438       0.052700
     69 H41          5.4590    -0.1150     1.1730 h1         1 438       0.057200
     70 H41A         6.0620    -0.7960    -0.3370 h1         1 438       0.057200
     71 H43          6.1020     5.1340     0.6940 h1         1 438       0.028033
     72 H43A         7.2550     5.5950    -0.5670 h1         1 438       0.028033
     73 H43B         5.7590     4.7890    -1.0090 h1         1 438       0.028033
     74 H44          8.9760     2.7350     0.6820 h1         1 438       0.028033
     75 H44A         9.0290     4.4620     0.3680 h1         1 438       0.028033
     76 H44B         8.1090     3.8510     1.7510 h1         1 438       0.028033
     77 H4          -3.2210     2.5850    -1.7080 ha         1 438       0.119000
     78 H5          -5.0480     3.8580    -2.7410 ha         1 438       0.108000
@<TRIPOS>BOND
     1     1     2 1   
     2     1    45 1   
     3     1    46 1   
     4     2     7 1   
     5     2    47 1   
     6     2    48 1   
     7     3     4 ar  
     8     3     8 ar  
     9     3     9 1   
    10     4     5 ar  
    11     4    77 1   
    12     5     6 ar  
    13     5    78 1   
    14     6     7 ar  
    15     6    49 1   
    16     7     8 ar  
    17     8    50 1   
    18     9    10 ar  
    19     9    14 ar  
    20    10    11 ar  
    21    10    51 1   
    22    11    12 ar  
    23    11    15 1   
    24    12    13 ar  
    25    12    52 1   
    26    13    14 ar  
    27    13    53 1   
    28    14    54 1   
    29    15    17 1   
    30    16    17 ar  
    31    16    21 ar  
    32    17    18 ar  
    33    18    19 ar  
    34    18    22 1   
    35    19    20 ar  
    36    19    23 1   
    37    20    21 ar  
    38    20    24 1   
    39    21    25 1   
    40    23    38 1   
    41    23    41 1   
    42    25    26 1   
    43    26    27 ar  
    44    26    32 ar  
    45    27    28 ar  
    46    27    55 1   
    47    28    29 1   
    48    28    30 ar  
    49    29    36 1   
    50    29    37 1   
    51    30    31 ar  
    52    30    56 1   
    53    31    32 ar  
    54    31    57 1   
    55    32    33 1   
    56    33    34 1   
    57    33    35 1   
    58    36    58 1   
    59    36    59 1   
    60    36    60 1   
    61    37    61 1   
    62    37    62 1   
    63    37    63 1   
    64    38    39 1   
    65    38    64 1   
    66    38    65 1   
    67    39    40 1   
    68    39    42 1   
    69    39    66 1   
    70    40    41 1   
    71    40    67 1   
    72    40    68 1   
    73    41    69 1   
    74    41    70 1   
    75    42    43 1   
    76    42    44 1   
    77    43    71 1   
    78    43    72 1   
    79    43    73 1   
    80    44    74 1   
    81    44    75 1   
    82    44    76 1   
@<TRIPOS>SUBSTRUCTURE
     1 438         1 TEMP              0 ****  ****    0 ROOT
