@<TRIPOS>MOLECULE
438
   78    82     1     0     0
SMALL
No Charge or Current Charge


@<TRIPOS>ATOM
      1 N1          -9.2530     1.9530    -0.1600 n8         1 438      -0.999200
      2 C2          -8.3730     3.0110     0.3690 c3         1 438       0.198100
      3 C3          -4.6290     2.1330     0.0400 cp         1 438      -0.018000
      4 C4          -4.3480     2.7110    -1.2240 ca         1 438      -0.100000
      5 C5          -5.3490     3.3670    -1.9590 ca         1 438      -0.120000
      6 C6          -6.6520     3.4610    -1.4460 ca         1 438      -0.093000
      7 C7          -6.9630     2.8980    -0.1950 ca         1 438      -0.095300
      8 C8          -5.9540     2.2390     0.5360 ca         1 438      -0.104000
      9 C9          -3.5640     1.4250     0.8190 cp         1 438      -0.048000
     10 C10         -2.2160     1.8670     0.7870 ca         1 438      -0.106000
     11 C11         -1.2130     1.1810     1.4910 ca         1 438       0.118100
     12 C12         -1.5360     0.0480     2.2570 ca         1 438      -0.074000
     13 C13         -2.8640    -0.4060     2.3060 ca         1 438      -0.093000
     14 C14         -3.8650     0.2750     1.5930 ca         1 438      -0.107000
     15 O15          0.0880     1.6260     1.4180 os         1 438      -0.365400
     16 N16          0.7240    -0.1990     0.0970 nb         1 438      -0.792000
     17 C17          1.0760     0.9070     0.7760 ca         1 438       0.584300
     18 C18          2.4050     1.3730     0.8380 ca         1 438       0.013000
     19 C19          3.4180     0.6520     0.1670 ca         1 438       0.293000
     20 C20          3.0410    -0.5130    -0.5380 ca         1 438       0.103000
     21 C21          1.6870    -0.9010    -0.5380 ca         1 438       0.659300
     22 F22          2.7000     2.4930     1.5530 f          1 438      -0.178000
     23 N23          4.7750     1.0910     0.1970 nh         1 438      -0.835400
     24 F24          3.9590    -1.2390    -1.2310 f          1 438      -0.146000
     25 O25          1.3220    -2.0320    -1.2390 os         1 438      -0.328400
     26 C26          0.1360    -2.6830    -0.9930 ca         1 438       0.146100
     27 C27         -1.0470    -2.1750    -1.5550 ca         1 438      -0.190000
     28 C28         -2.2830    -2.8040    -1.3240 ca         1 438       0.301000
     29 N29         -3.4780    -2.2630    -1.8620 nh         1 438      -0.826400
     30 C30         -2.3070    -3.9770    -0.5440 ca         1 438      -0.204000
     31 C31         -1.1240    -4.5000     0.0050 ca         1 438      -0.057000
     32 C32          0.1100    -3.8520    -0.2060 ca         1 438      -0.160600
     33 C33          1.3640    -4.4150     0.4080 c          1 438       0.719600
     34 O34          1.5460    -5.6220     0.3280 o          1 438      -0.718500
     35 O35          2.1060    -3.6640     1.0260 o          1 438      -0.718500
     36 C36         -3.6570    -0.8020    -2.0170 c3         1 438       0.220100
     37 C37         -4.6450    -3.1180    -2.1730 c3         1 438       0.220100
     38 C38          5.2280     2.4280    -0.2820 c5         1 438       0.223800
     39 C39          6.6740     2.5110     0.3170 c5         1 438       0.146500
     40 C40          7.1300     1.0340     0.1450 c5         1 438      -0.093400
     41 C41          5.9040     0.2720     0.7130 c5         1 438       0.221800
     42 N42          7.5420     3.4040    -0.5350 n3         1 438      -0.707600
     43 C43          7.0560     4.8020    -0.6400 c3         1 438       0.152100
     44 C44          8.9840     3.3810    -0.1880 c3         1 438       0.152100
     45 HN1         -8.8780     1.0430     0.1310 hn         1 438       0.393000
     46 HN1A       -10.1610     2.0070     0.3170 hn         1 438       0.393000
     47 H2          -8.8010     3.9900     0.1100 h1         1 438       0.032700
     48 H2A         -8.3440     2.9320     1.4650 h1         1 438       0.032700
     49 H6          -7.4230     3.9700    -2.0210 ha         1 438       0.123000
     50 H8          -6.1960     1.8160     1.5080 ha         1 438       0.110000
     51 H10         -1.9440     2.7470     0.2120 ha         1 438       0.120000
     52 H12         -0.7570    -0.4820     2.8000 ha         1 438       0.150000
     53 H13         -3.1150    -1.2900     2.8880 ha         1 438       0.122000
     54 H14         -4.8830    -0.1060     1.6260 ha         1 438       0.105000
     55 H27         -0.9960    -1.2810    -2.1670 ha         1 438       0.107000
     56 H30         -3.2450    -4.4850    -0.3430 ha         1 438       0.092000
     57 H31         -1.1660    -5.4040     0.6100 ha         1 438       0.130000
     58 H36         -3.4210    -0.4930    -3.0440 h1         1 438       0.025200
     59 H36A        -4.6910    -0.5100    -1.7890 h1         1 438       0.025200
     60 H36B        -3.0000    -0.2560    -1.3280 h1         1 438       0.025200
     61 H37         -5.2470    -3.2900    -1.2710 h1         1 438       0.025200
     62 H37A        -5.2820    -2.6420    -2.9320 h1         1 438       0.025200
     63 H37B        -4.3180    -4.0870    -2.5720 h1         1 438       0.025200
     64 H38          5.2440     2.4600    -1.3800 h1         1 438       0.050700
     65 H38A         4.5990     3.2520     0.0810 h1         1 438       0.050700
     66 H39          6.6610     2.8140     1.3740 h1         1 438       0.034700
     67 H40          7.2990     0.7780    -0.9080 hc         1 438       0.052700
     68 H40A         8.0440     0.7950     0.6990 hc         1 438       0.052700
     69 H41          5.9140     0.2640     1.8120 h1         1 438       0.057200
     70 H41A         5.8820    -0.7690     0.3600 h1         1 438       0.057200
     71 H43          7.0520     5.2870     0.3450 h1         1 438       0.028033
     72 H43A         7.7000     5.3880    -1.3090 h1         1 438       0.028033
     73 H43B         6.0370     4.8420    -1.0480 h1         1 438       0.028033
     74 H44          9.4050     2.3720    -0.2860 h1         1 438       0.028033
     75 H44A         9.5550     4.0380    -0.8570 h1         1 438       0.028033
     76 H44B         9.1410     3.7220     0.8440 h1         1 438       0.028033
     77 H4          -3.3490     2.6380    -1.6460 ha         1 438       0.119000
     78 H5          -5.1150     3.8010    -2.9290 ha         1 438       0.108000
@<TRIPOS>BOND
     1     1     2 1   
     2     1    45 1   
     3     1    46 1   
     4     2     7 1   
     5     2    47 1   
     6     2    48 1   
     7     3     4 ar  
     8     3     8 ar  
     9     3     9 1   
    10     4     5 ar  
    11     4    77 1   
    12     5     6 ar  
    13     5    78 1   
    14     6     7 ar  
    15     6    49 1   
    16     7     8 ar  
    17     8    50 1   
    18     9    10 ar  
    19     9    14 ar  
    20    10    11 ar  
    21    10    51 1   
    22    11    12 ar  
    23    11    15 1   
    24    12    13 ar  
    25    12    52 1   
    26    13    14 ar  
    27    13    53 1   
    28    14    54 1   
    29    15    17 1   
    30    16    17 ar  
    31    16    21 ar  
    32    17    18 ar  
    33    18    19 ar  
    34    18    22 1   
    35    19    20 ar  
    36    19    23 1   
    37    20    21 ar  
    38    20    24 1   
    39    21    25 1   
    40    23    38 1   
    41    23    41 1   
    42    25    26 1   
    43    26    27 ar  
    44    26    32 ar  
    45    27    28 ar  
    46    27    55 1   
    47    28    29 1   
    48    28    30 ar  
    49    29    36 1   
    50    29    37 1   
    51    30    31 ar  
    52    30    56 1   
    53    31    32 ar  
    54    31    57 1   
    55    32    33 1   
    56    33    34 1   
    57    33    35 1   
    58    36    58 1   
    59    36    59 1   
    60    36    60 1   
    61    37    61 1   
    62    37    62 1   
    63    37    63 1   
    64    38    39 1   
    65    38    64 1   
    66    38    65 1   
    67    39    40 1   
    68    39    42 1   
    69    39    66 1   
    70    40    41 1   
    71    40    67 1   
    72    40    68 1   
    73    41    69 1   
    74    41    70 1   
    75    42    43 1   
    76    42    44 1   
    77    43    71 1   
    78    43    72 1   
    79    43    73 1   
    80    44    74 1   
    81    44    75 1   
    82    44    76 1   
@<TRIPOS>SUBSTRUCTURE
     1 438         1 TEMP              0 ****  ****    0 ROOT
