@<TRIPOS>MOLECULE
439
   59    63     1     0     0
SMALL
No Charge or Current Charge


@<TRIPOS>ATOM
      1 O3          -0.2960     0.7790     1.3350 o          1 439      -0.523000
      2 C25         -0.1800     1.7360     0.5780 c          1 439       0.534000
      3 N2           1.0300     2.2530     0.0710 n          1 439      -0.219400
      4 C8           2.3510     1.7410     0.3510 ca         1 439      -0.019000
      5 C7           2.6460     1.0610     1.5570 ca         1 439      -0.119000
      6 C9           3.2990     1.6840    -0.7000 ca         1 439      -0.165000
      7 C10          4.5480     1.0590    -0.5200 ca         1 439      -0.070000
      8 C11          4.8290     0.4380     0.7060 ca         1 439      -0.112300
      9 C6           3.8960     0.4460     1.7220 ca         1 439      -0.044300
     10 C5           4.3980    -0.2620     2.9520 c5         1 439      -0.031100
     11 C4           5.9490    -0.2240     2.6750 c5         1 439      -0.072400
     12 C3           6.1030    -0.2840     1.0970 c5         1 439       0.225800
     13 N1           6.1160    -1.7320     0.6860 n3         1 439      -0.705600
     14 C2           5.7420    -1.9790    -0.7270 c3         1 439       0.147600
     15 C1           7.3660    -2.4580     1.0240 c3         1 439       0.147600
     16 C14         -1.2970     2.6450    -0.0270 c5         1 439       0.142500
     17 C13         -0.5420     3.9530    -0.3740 c5         1 439      -0.094400
     18 C12          0.8350     3.4020    -0.8380 c5         1 439       0.093000
     19 N3          -2.4450     3.0450     0.8630 n7         1 439      -0.876300
     20 S1          -3.6340     1.9690     1.3350 sy         1 439       1.168600
     21 O1          -3.1390     1.3470     2.5640 o          1 439      -0.535000
     22 O2          -4.8820     2.7330     1.2840 o          1 439      -0.535000
     23 C15         -3.6180     0.7770    -0.0130 ca         1 439      -0.288500
     24 C24         -3.0020    -0.4800     0.1550 ca         1 439       0.028000
     25 C23         -2.9730    -1.4010    -0.9090 ca         1 439      -0.062000
     26 C18         -3.5690    -1.0670    -2.1460 ca         1 439       0.016000
     27 C17         -4.1910     0.1840    -2.3080 ca         1 439      -0.103000
     28 C16         -4.2180     1.1040    -1.2470 ca         1 439      -0.025000
     29 C22         -2.3490    -2.6540    -0.7470 ca         1 439      -0.074000
     30 C21         -2.3210    -3.5690    -1.8140 ca         1 439      -0.110000
     31 C20         -2.9150    -3.2350    -3.0420 ca         1 439       0.139000
     32 Cl1         -2.8780    -4.3830    -4.3740 cl         1 439      -0.197000
     33 C19         -3.5380    -1.9880    -3.2100 ca         1 439      -0.104000
     34 H14         -1.6360     2.1640    -0.9560 h1         1 439       0.102700
     35 H121         1.6320     4.1510    -0.7390 h1         1 439       0.059200
     36 H122         0.8010     3.0640    -1.8830 h1         1 439       0.059200
     37 H7           1.9350     1.0390     2.3780 ha         1 439       0.144000
     38 H9           3.0760     2.1260    -1.6680 ha         1 439       0.111000
     39 H10          5.2780     1.0410    -1.3260 ha         1 439       0.114000
     40 H3           6.9970     0.2490     0.7440 h1         1 439       0.035700
     41 H51C         4.1290     0.2460     3.8850 hc         1 439       0.061200
     42 H52C         4.0210    -1.2890     3.0050 hc         1 439       0.061200
     43 H41C         6.3600     0.7250     3.0370 hc         1 439       0.048700
     44 H42C         6.4830    -1.0060     3.2230 hc         1 439       0.048700
     45 H21C         6.4330    -1.4650    -1.4090 h1         1 439       0.030533
     46 H22C         5.7690    -3.0520    -0.9560 h1         1 439       0.030533
     47 H23C         4.7230    -1.6290    -0.9350 h1         1 439       0.030533
     48 H11C         7.5930    -2.4170     2.0950 h1         1 439       0.030533
     49 H12C         7.2840    -3.5190     0.7500 h1         1 439       0.030533
     50 H13C         8.2200    -2.0320     0.4790 h1         1 439       0.030533
     51 H131        -1.0440     4.5450    -1.1470 hc         1 439       0.072700
     52 H132        -0.4170     4.5950     0.5060 hc         1 439       0.072700
     53 HA          -2.1130     3.3660     1.7720 hn         1 439       0.495000
     54 H24         -2.5410    -0.7450     1.1050 ha         1 439       0.131000
     55 H16         -4.6960     2.0720    -1.3890 ha         1 439       0.133000
     56 H22         -1.8860    -2.9190     0.2010 ha         1 439       0.121000
     57 H17         -4.6530     0.4470    -3.2570 ha         1 439       0.120000
     58 H19         -3.9950    -1.7400    -4.1650 ha         1 439       0.134000
     59 H21         -1.8400    -4.5360    -1.6900 ha         1 439       0.132000
@<TRIPOS>BOND
     1     1     2 2   
     2     2     3 1   
     3     2    16 1   
     4     3     4 1   
     5     3    18 1   
     6     4     5 ar  
     7     4     6 ar  
     8     5     9 ar  
     9     5    37 1   
    10     6     7 ar  
    11     6    38 1   
    12     7     8 ar  
    13     7    39 1   
    14     8     9 ar  
    15     8    12 1   
    16     9    10 1   
    17    10    11 1   
    18    10    41 1   
    19    10    42 1   
    20    11    12 1   
    21    11    43 1   
    22    11    44 1   
    23    12    13 1   
    24    12    40 1   
    25    13    14 1   
    26    13    15 1   
    27    14    45 1   
    28    14    46 1   
    29    14    47 1   
    30    15    48 1   
    31    15    49 1   
    32    15    50 1   
    33    16    17 1   
    34    16    19 1   
    35    16    34 1   
    36    17    18 1   
    37    17    51 1   
    38    17    52 1   
    39    18    35 1   
    40    18    36 1   
    41    19    20 1   
    42    19    53 1   
    43    20    21 2   
    44    20    22 2   
    45    20    23 1   
    46    23    24 ar  
    47    23    28 ar  
    48    24    25 ar  
    49    24    54 1   
    50    25    26 ar  
    51    25    29 ar  
    52    26    27 ar  
    53    26    33 ar  
    54    27    28 ar  
    55    27    57 1   
    56    28    55 1   
    57    29    30 ar  
    58    29    56 1   
    59    30    31 ar  
    60    30    59 1   
    61    31    32 1   
    62    31    33 ar  
    63    33    58 1   
@<TRIPOS>SUBSTRUCTURE
     1 439         1 TEMP              0 ****  ****    0 ROOT
