@<TRIPOS>MOLECULE
439
   59    63     1     0     0
SMALL
bcc


@<TRIPOS>ATOM
      1 O3          -0.4950     0.8430     0.3350 o          1 439      -0.598500
      2 C25         -0.1830     2.0060     0.1980 c          1 439       0.676500
      3 N2           1.0650     2.5460     0.2330 n          1 439      -0.379000
      4 C8           2.2760     1.8370     0.2980 ca         1 439       0.073600
      5 C7           2.3470     0.5300     0.7980 ca         1 439      -0.137000
      6 C9           3.4500     2.4730    -0.1210 ca         1 439      -0.183000
      7 C10          4.6730     1.8190    -0.0650 ca         1 439      -0.088000
      8 C11          4.7360     0.5180     0.4010 ca         1 439      -0.112300
      9 C6           3.5740    -0.1060     0.8410 ca         1 439      -0.044300
     10 C5           3.8940    -1.4740     1.3710 c5         1 439      -0.031100
     11 C4           5.4030    -1.3730     1.6270 c5         1 439      -0.072400
     12 C3           5.9250    -0.4040     0.5470 c5         1 439       0.225800
     13 N1           6.2170    -1.1130    -0.7020 n3         1 439      -0.705600
     14 C2           6.3880    -0.2270    -1.8350 c3         1 439       0.147600
     15 C1           7.3940    -1.9500    -0.5690 c3         1 439       0.147600
     16 C14         -1.1680     3.1430    -0.0620 c5         1 439       0.142500
     17 C13         -0.3920     4.3790     0.3610 c5         1 439      -0.094400
     18 C12          1.0430     3.9950     0.0300 c5         1 439       0.093000
     19 N3          -2.4280     2.9810     0.6200 n7         1 439      -0.821100
     20 S1          -3.7670     2.3920    -0.1300 sy         1 439       1.310200
     21 O1          -4.8340     2.5000     0.8500 o          1 439      -0.605800
     22 O2          -3.8690     3.0760    -1.4090 o          1 439      -0.605800
     23 C15         -3.5000     0.6730    -0.4620 ca         1 439      -0.288500
     24 C24         -3.7660    -0.2350     0.5240 ca         1 439       0.010000
     25 C23         -3.5060    -1.6020     0.3020 ca         1 439      -0.062000
     26 C18         -2.9740    -2.0130    -0.9460 ca         1 439       0.016000
     27 C17         -2.7260    -1.0410    -1.9430 ca         1 439      -0.121000
     28 C16         -2.9830     0.2790    -1.7120 ca         1 439      -0.043000
     29 C22         -3.7630    -2.5750     1.2960 ca         1 439      -0.092000
     30 C21         -3.5020    -3.8960     1.0670 ca         1 439      -0.128000
     31 C20         -2.9720    -4.2870    -0.1790 ca         1 439       0.047400
     32 CL1         -2.6540    -5.9680    -0.4440 cl         1 439      -0.105400
     33 C19         -2.7110    -3.3830    -1.1680 ca         1 439      -0.122000
     34 H14         -1.3500     3.1830    -1.1410 h1         1 439       0.102700
     35 H121         1.7630     4.4820     0.6850 h1         1 439       0.059200
     36 H122         1.2960     4.2430    -1.0030 h1         1 439       0.059200
     37 H7           1.4680     0.0270     1.1660 ha         1 439       0.162000
     38 H9           3.4240     3.4850    -0.5000 ha         1 439       0.129000
     39 H10          5.5660     2.3400    -0.3900 ha         1 439       0.132000
     40 H3           6.8170     0.1450     0.8960 h1         1 439       0.035700
     41 H51C         3.3270    -1.7330     2.2660 hc         1 439       0.061200
     42 H52C         3.6750    -2.2350     0.6180 hc         1 439       0.061200
     43 H41C         5.5760    -0.9230     2.6070 hc         1 439       0.048700
     44 H42C         5.9010    -2.3410     1.6290 hc         1 439       0.048700
     45 H21C         7.1820     0.5230    -1.6870 h1         1 439       0.030533
     46 H22C         6.6530    -0.8150    -2.7140 h1         1 439       0.030533
     47 H23C         5.4650     0.3030    -2.0660 h1         1 439       0.030533
     48 H11C         7.2770    -2.6770     0.2320 h1         1 439       0.030533
     49 H12C         7.5510    -2.5100    -1.4920 h1         1 439       0.030533
     50 H13C         8.3120    -1.3750    -0.3680 h1         1 439       0.030533
     51 H131        -0.7120     5.2820    -0.1530 hc         1 439       0.072700
     52 H132        -0.5010     4.5360     1.4360 hc         1 439       0.072700
     53 HA          -2.3700     2.7180     1.5970 hn         1 439       0.439800
     54 H24         -4.1690     0.0730     1.4800 ha         1 439       0.149000
     55 H16         -2.8000     1.0100    -2.4880 ha         1 439       0.151000
     56 H22         -4.1700    -2.2620     2.2490 ha         1 439       0.139000
     57 H17         -2.3320    -1.3570    -2.9010 ha         1 439       0.138000
     58 H19         -2.3070    -3.7020    -2.1200 ha         1 439       0.152000
     59 H21         -3.6980    -4.6370     1.8300 ha         1 439       0.150000
@<TRIPOS>BOND
     1     1     2 2   
     2     2     3 1   
     3     2    16 1   
     4     3     4 1   
     5     3    18 1   
     6     4     5 ar  
     7     4     6 ar  
     8     5     9 ar  
     9     5    37 1   
    10     6     7 ar  
    11     6    38 1   
    12     7     8 ar  
    13     7    39 1   
    14     8     9 ar  
    15     8    12 1   
    16     9    10 1   
    17    10    11 1   
    18    10    41 1   
    19    10    42 1   
    20    11    12 1   
    21    11    43 1   
    22    11    44 1   
    23    12    13 1   
    24    12    40 1   
    25    13    14 1   
    26    13    15 1   
    27    14    45 1   
    28    14    46 1   
    29    14    47 1   
    30    15    48 1   
    31    15    49 1   
    32    15    50 1   
    33    16    17 1   
    34    16    19 1   
    35    16    34 1   
    36    17    18 1   
    37    17    51 1   
    38    17    52 1   
    39    18    35 1   
    40    18    36 1   
    41    19    20 1   
    42    19    53 1   
    43    20    21 2   
    44    20    22 2   
    45    20    23 1   
    46    23    24 ar  
    47    23    28 ar  
    48    24    25 ar  
    49    24    54 1   
    50    25    26 ar  
    51    25    29 ar  
    52    26    27 ar  
    53    26    33 ar  
    54    27    28 ar  
    55    27    57 1   
    56    28    55 1   
    57    29    30 ar  
    58    29    56 1   
    59    30    31 ar  
    60    30    59 1   
    61    31    32 1   
    62    31    33 ar  
    63    33    58 1   
@<TRIPOS>SUBSTRUCTURE
     1 439         1 TEMP              0 ****  ****    0 ROOT
