@<TRIPOS>MOLECULE
43A
   41    44     1     0     0
SMALL
No Charge or Current Charge


@<TRIPOS>ATOM
      1 C1           5.7720    -0.6650    -0.1330 ca         1 43A       0.128100
      2 C2           5.1870     0.6120    -0.0290 ca         1 43A       0.045100
      3 C3           3.7780     0.7330    -0.0240 ca         1 43A      -0.140000
      4 C4           2.9450    -0.4110    -0.1230 cp         1 43A      -0.044000
      5 C5           3.5660    -1.6820    -0.2240 ca         1 43A      -0.092000
      6 C6           4.9650    -1.8080    -0.2300 ca         1 43A      -0.127000
      7 O7           7.1310    -0.7880    -0.1380 oh         1 43A      -0.532100
      8 O8           6.0280     1.7090     0.0680 os         1 43A      -0.368100
      9 C9           5.5300     3.0560     0.1760 c3         1 43A       0.156900
     10 C10          1.4520    -0.2820    -0.1180 cp         1 43A       0.005000
     11 C11          0.6380    -1.2640     0.5120 ca         1 43A      -0.131000
     12 C12         -0.7480    -1.0970     0.4890 ca         1 43A       0.053600
     13 C13         -1.3620    -0.0190    -0.1190 ca         1 43A      -0.090800
     14 C14         -0.5970     0.9700    -0.7530 ca         1 43A      -0.063000
     15 C15          0.8080     0.8290    -0.7460 ca         1 43A      -0.130000
     16 N16         -1.7570    -1.8910     1.0230 ns         1 43A      -0.390100
     17 C17         -3.0260    -1.4240     0.8160 c          1 43A       0.584200
     18 C18         -2.8120    -0.1610     0.0480 cc         1 43A      -0.197400
     19 O19         -4.0570    -1.9610     1.1960 o          1 43A      -0.585000
     20 C20         -3.7590     0.7140    -0.4220 cf         1 43A       0.019800
     21 C21         -5.2240     0.6970    -0.3290 cd         1 43A      -0.222800
     22 N22         -6.0400    -0.2610     0.2900 na         1 43A      -0.069000
     23 C23         -7.3920     0.0870     0.1580 cd         1 43A      -0.155000
     24 C24         -7.4060     1.2590    -0.5420 cc         1 43A      -0.203000
     25 C25         -6.0840     1.6310    -0.8400 cc         1 43A      -0.119000
     26 H3           3.3120     1.7090     0.0700 ha         1 43A       0.119000
     27 H5           2.9580    -2.5790    -0.3140 ha         1 43A       0.119000
     28 H6           5.4230    -2.7900    -0.3120 ha         1 43A       0.132000
     29 HO7          7.4910     0.1230    -0.0600 ho         1 43A       0.482000
     30 H91          6.3630     3.7660     0.2380 h1         1 43A       0.042367
     31 H92          4.9240     3.3190    -0.7010 h1         1 43A       0.042367
     32 H93          4.9150     3.1740     1.0780 h1         1 43A       0.042367
     33 H11          1.0770    -2.1220     1.0150 ha         1 43A       0.123000
     34 H14         -1.0630     1.8230    -1.2400 ha         1 43A       0.116000
     35 H15          1.4070     1.5840    -1.2470 ha         1 43A       0.115000
     36 H16         -1.5770    -2.7500     1.5270 hn         1 43A       0.340500
     37 H20         -3.3510     1.5710    -0.9590 ha         1 43A       0.184000
     38 H22         -5.6850    -1.0920     0.7680 hn         1 43A       0.395000
     39 H23         -8.2020    -0.5110     0.5620 h4         1 43A       0.149000
     40 H24         -8.2880     1.8250    -0.8310 ha         1 43A       0.135000
     41 H25         -5.8080     2.5260    -1.3920 ha         1 43A       0.129000
@<TRIPOS>BOND
     1     1     2 ar  
     2     1     6 ar  
     3     1     7 1   
     4     2     3 ar  
     5     2     8 1   
     6     3     4 ar  
     7     3    26 1   
     8     4     5 ar  
     9     4    10 1   
    10     5     6 ar  
    11     5    27 1   
    12     6    28 1   
    13     7    29 1   
    14     8     9 1   
    15     9    30 1   
    16     9    31 1   
    17     9    32 1   
    18    10    11 ar  
    19    10    15 ar  
    20    11    12 ar  
    21    11    33 1   
    22    12    13 ar  
    23    12    16 1   
    24    13    14 ar  
    25    13    18 1   
    26    14    15 ar  
    27    14    34 1   
    28    15    35 1   
    29    16    17 1   
    30    16    36 1   
    31    17    18 1   
    32    17    19 2   
    33    18    20 2   
    34    20    21 1   
    35    20    37 1   
    36    21    22 1   
    37    21    25 2   
    38    22    23 1   
    39    22    38 1   
    40    23    24 2   
    41    23    39 1   
    42    24    25 1   
    43    24    40 1   
    44    25    41 1   
@<TRIPOS>SUBSTRUCTURE
     1 43A         1 TEMP              0 ****  ****    0 ROOT
