@<TRIPOS>MOLECULE
43A
   41    44     1     0     0
SMALL
bcc


@<TRIPOS>ATOM
      1 C1           5.6930    -0.6380    -0.1170 ca         1 43A       0.128100
      2 C2           5.0910     0.6290    -0.0180 ca         1 43A       0.045100
      3 C3           3.7120     0.7410    -0.0080 ca         1 43A      -0.158000
      4 C4           2.8950    -0.3930    -0.0990 cp         1 43A      -0.044000
      5 C5           3.5040    -1.6400    -0.1950 ca         1 43A      -0.110000
      6 C6           4.8880    -1.7600    -0.2030 ca         1 43A      -0.145000
      7 O7           7.0320    -0.7810    -0.1290 oh         1 43A      -0.493100
      8 O8           5.9580     1.6590     0.0740 os         1 43A      -0.344900
      9 C9           5.4440     2.9750     0.1290 c3         1 43A       0.133700
     10 C10          1.4260    -0.2570    -0.0980 cp         1 43A       0.005000
     11 C11          0.6290    -1.2350     0.5100 ca         1 43A      -0.149000
     12 C12         -0.7400    -1.0780     0.4800 ca         1 43A       0.053600
     13 C13         -1.3600     0.0200    -0.1280 ca         1 43A      -0.090800
     14 C14         -0.5700     0.9880    -0.7270 ca         1 43A      -0.081000
     15 C15          0.8110     0.8420    -0.7090 ca         1 43A      -0.148000
     16 N16         -1.7220    -1.8970     1.0100 ns         1 43A      -0.457100
     17 C17         -2.9740    -1.4080     0.7830 c          1 43A       0.726700
     18 C18         -2.7960    -0.1430     0.0370 cc         1 43A      -0.197400
     19 O19         -4.0060    -1.9600     1.1550 o          1 43A      -0.660500
     20 C20         -3.7480     0.7180    -0.4100 cf         1 43A       0.069800
     21 C21         -5.1630     0.7000    -0.3300 cd         1 43A      -0.172100
     22 N22         -5.9380    -0.2670     0.2540 na         1 43A      -0.120100
     23 C23         -7.2350     0.0520     0.1400 cd         1 43A      -0.122300
     24 C24         -7.3380     1.2590    -0.5360 cc         1 43A      -0.221000
     25 C25         -6.0350     1.6680    -0.8330 cc         1 43A      -0.137000
     26 H3           3.2520     1.7150     0.0960 ha         1 43A       0.137000
     27 H5           2.9020    -2.5350    -0.2900 ha         1 43A       0.137000
     28 H6           5.3490    -2.7360    -0.2880 ha         1 43A       0.150000
     29 HO7          7.4610     0.0800    -0.0570 ho         1 43A       0.443000
     30 H91          6.3010     3.6410     0.1870 h1         1 43A       0.042367
     31 H92          4.8640     3.2200    -0.7650 h1         1 43A       0.042367
     32 H93          4.8170     3.1280     1.0100 h1         1 43A       0.042367
     33 H11          1.0760    -2.0840     1.0120 ha         1 43A       0.141000
     34 H14         -1.0120     1.8490    -1.2130 ha         1 43A       0.134000
     35 H15          1.4190     1.5900    -1.2020 ha         1 43A       0.133000
     36 H16         -1.5490    -2.7590     1.5060 hn         1 43A       0.340500
     37 H20         -3.3790     1.5970    -0.9300 ha         1 43A       0.134000
     38 H22         -5.5330    -1.0870     0.7030 hn         1 43A       0.344700
     39 H23         -8.0050    -0.5890     0.5380 h4         1 43A       0.167000
     40 H24         -8.2550     1.7720    -0.7770 ha         1 43A       0.153000
     41 H25         -5.7320     2.5640    -1.3530 ha         1 43A       0.147000
@<TRIPOS>BOND
     1     1     2 ar  
     2     1     6 ar  
     3     1     7 1   
     4     2     3 ar  
     5     2     8 1   
     6     3     4 ar  
     7     3    26 1   
     8     4     5 ar  
     9     4    10 1   
    10     5     6 ar  
    11     5    27 1   
    12     6    28 1   
    13     7    29 1   
    14     8     9 1   
    15     9    30 1   
    16     9    31 1   
    17     9    32 1   
    18    10    11 ar  
    19    10    15 ar  
    20    11    12 ar  
    21    11    33 1   
    22    12    13 ar  
    23    12    16 1   
    24    13    14 ar  
    25    13    18 1   
    26    14    15 ar  
    27    14    34 1   
    28    15    35 1   
    29    16    17 1   
    30    16    36 1   
    31    17    18 1   
    32    17    19 2   
    33    18    20 2   
    34    20    21 1   
    35    20    37 1   
    36    21    22 1   
    37    21    25 2   
    38    22    23 1   
    39    22    38 1   
    40    23    24 2   
    41    23    39 1   
    42    24    25 1   
    43    24    40 1   
    44    25    41 1   
@<TRIPOS>SUBSTRUCTURE
     1 43A         1 TEMP              0 ****  ****    0 ROOT
