@<TRIPOS>MOLECULE
43B
   78    83     1     0     0
SMALL
No Charge or Current Charge


@<TRIPOS>ATOM
      1 C8          -9.3900     2.7750     0.0830 c3         1 43B      -0.027100
      2 C9          -9.4510     1.2490     0.3090 c3         1 43B      -0.099700
      3 C10         -8.3600     0.5040    -0.4090 cc         1 43B       0.404200
      4 S11         -8.6100     0.0000    -2.0980 ss         1 43B       0.021800
      5 C12         -6.9890    -0.6650    -1.9960 ca         1 43B      -0.178000
      6 C13         -6.4170    -0.4650    -0.7570 ca         1 43B       0.092400
      7 N14         -7.1910     0.2100     0.1790 nd         1 43B      -0.533100
      8 C15         -5.1190    -0.9350    -0.5010 ca         1 43B      -0.040000
      9 C16         -4.3850    -1.6160    -1.5120 cp         1 43B      -0.048000
     10 C17         -5.0080    -1.8020    -2.7780 ca         1 43B      -0.088000
     11 C18         -6.3100    -1.3290    -3.0250 ca         1 43B      -0.071000
     12 C19         -2.9990    -2.1200    -1.2510 cp         1 43B       0.001000
     13 C20         -2.0130    -2.1120    -2.2650 ca         1 43B      -0.112000
     14 C21         -0.7120    -2.5840    -2.0220 ca         1 43B      -0.061500
     15 C22         -0.3470    -3.0850    -0.7530 ca         1 43B      -0.159600
     16 C23         -1.3280    -3.0980     0.2680 ca         1 43B      -0.061500
     17 C24         -2.6280    -2.6230     0.0180 ca         1 43B      -0.112000
     18 C25          1.0680    -3.5850    -0.5300 c          1 43B       0.651700
     19 N26          1.3590    -4.0410     0.7170 ns         1 43B      -0.583300
     20 S27          2.8170    -4.6340     1.2720 sy         1 43B       1.199300
     21 C28          3.9530    -3.2530     1.1370 ca         1 43B      -0.381500
     22 O29          1.9000    -3.5730    -1.4250 o          1 43B      -0.567100
     23 O30          3.2330    -5.6790     0.3310 o          1 43B      -0.528000
     24 O31          2.5940    -4.9220     2.6910 o          1 43B      -0.528000
     25 C32          4.0290    -2.3080     2.1760 ca         1 43B       0.108000
     26 C33          4.9180    -1.2160     2.0770 ca         1 43B      -0.315200
     27 C34          5.7170    -1.0760     0.9250 ca         1 43B       0.461000
     28 C35          5.6310    -2.0250    -0.1020 ca         1 43B      -0.246000
     29 C36          4.7550    -3.1130    -0.0060 ca         1 43B       0.098000
     30 N37          4.9540    -0.2350     3.1910 no         1 43B       0.712200
     31 O38          3.9340    -0.1070     3.8780 o          1 43B      -0.422000
     32 O39          6.0170     0.3490     3.4360 o          1 43B      -0.422000
     33 N40          6.5960    -0.0100     0.7670 nu         1 43B      -0.932200
     34 C41          6.7860     0.7760    -0.4680 c3         1 43B       0.230800
     35 C42          7.7780     1.9310    -0.2410 c3         1 43B       0.013600
     36 S43          8.0150     2.8990    -1.7980 ss         1 43B      -0.157000
     37 C44          9.1760     4.2100    -1.3900 ca         1 43B      -0.091000
     38 C45          9.5170     5.1270    -2.4020 ca         1 43B      -0.108000
     39 C46         10.4200     6.1730    -2.1420 ca         1 43B      -0.094500
     40 C47         10.9890     6.3080    -0.8650 ca         1 43B      -0.110000
     41 C48         10.6540     5.3970     0.1500 ca         1 43B      -0.094500
     42 C49          9.7510     4.3500    -0.1090 ca         1 43B      -0.108000
     43 C1         -12.5950     4.8430     2.1600 ca         1 43B      -0.108000
     44 C2         -11.3670     4.6180     2.8060 ca         1 43B      -0.109000
     45 C3         -10.3290     3.9500     2.1330 ca         1 43B      -0.105000
     46 C4         -10.5120     3.5040     0.8100 ca         1 43B      -0.086300
     47 C5         -11.7460     3.7300     0.1670 ca         1 43B      -0.105000
     48 C6         -12.7830     4.3980     0.8400 ca         1 43B      -0.109000
     49 HD1         -8.4160     3.1500     0.4200 hc         1 43B       0.056700
     50 HD2         -9.4410     2.9830    -0.9930 hc         1 43B       0.056700
     51 HE1        -10.4260     0.8740    -0.0220 hc         1 43B       0.070200
     52 HE2         -9.3900     1.0420     1.3850 hc         1 43B       0.070200
     53 HF          -4.6760    -0.7590     0.4750 ha         1 43B       0.135000
     54 HG          -4.4830    -2.3300    -3.5700 ha         1 43B       0.120000
     55 HH          -6.7790    -1.4790    -3.9960 ha         1 43B       0.128000
     56 HI1         -2.2520    -1.7220    -3.2510 ha         1 43B       0.124000
     57 HJ1          0.0150    -2.5550    -2.8320 ha         1 43B       0.126000
     58 HJ2         -1.1070    -3.4760     1.2630 ha         1 43B       0.126000
     59 HI2         -3.3600    -2.6610     0.8210 ha         1 43B       0.124000
     60 H26          0.6670    -4.0220     1.4420 hn         1 43B       0.350500
     61 HK           3.4010    -2.4270     3.0600 ha         1 43B       0.162000
     62 HL           6.2510    -1.9290    -0.9860 ha         1 43B       0.130000
     63 HM           4.7030    -3.8340    -0.8220 ha         1 43B       0.154000
     64 H40          6.7690     0.4860     1.6460 hn         1 43B       0.537000
     65 HN1          7.1700     0.1360    -1.2750 h1         1 43B       0.066700
     66 HN2          5.8240     1.1910    -0.8010 h1         1 43B       0.066700
     67 HO1          7.3940     2.5990     0.5400 h1         1 43B       0.078700
     68 HO2          8.7450     1.5230     0.0780 h1         1 43B       0.078700
     69 HP1          9.0800     5.0280    -3.3930 ha         1 43B       0.118000
     70 HQ1         10.6770     6.8770    -2.9300 ha         1 43B       0.116500
     71 HR          11.6870     7.1170    -0.6630 ha         1 43B       0.118000
     72 HQ2         11.0950     5.5010     1.1390 ha         1 43B       0.116500
     73 HP2          9.5130     3.6620     0.6960 ha         1 43B       0.118000
     74 HB1        -11.2210     4.9600     3.8280 ha         1 43B       0.113500
     75 HC1         -9.3830     3.7780     2.6420 ha         1 43B       0.112000
     76 HC2        -11.9010     3.3870    -0.8530 ha         1 43B       0.112000
     77 HB2        -13.7340     4.5700     0.3390 ha         1 43B       0.113500
     78 HA         -13.3980     5.3590     2.6810 ha         1 43B       0.113000
@<TRIPOS>BOND
     1     1     2 1   
     2     1    46 1   
     3     1    49 1   
     4     1    50 1   
     5     2     3 1   
     6     2    51 1   
     7     2    52 1   
     8     3     4 1   
     9     3     7 2   
    10     4     5 1   
    11     5     6 ar  
    12     5    11 ar  
    13     6     7 1   
    14     6     8 ar  
    15     8     9 ar  
    16     8    53 1   
    17     9    10 ar  
    18     9    12 1   
    19    10    11 ar  
    20    10    54 1   
    21    11    55 1   
    22    12    13 ar  
    23    12    17 ar  
    24    13    14 ar  
    25    13    56 1   
    26    14    15 ar  
    27    14    57 1   
    28    15    16 ar  
    29    15    18 1   
    30    16    17 ar  
    31    16    58 1   
    32    17    59 1   
    33    18    19 1   
    34    18    22 2   
    35    19    20 1   
    36    19    60 1   
    37    20    21 1   
    38    20    23 2   
    39    20    24 2   
    40    21    25 ar  
    41    21    29 ar  
    42    25    26 ar  
    43    25    61 1   
    44    26    27 ar  
    45    26    30 1   
    46    27    28 ar  
    47    27    33 1   
    48    28    29 ar  
    49    28    62 1   
    50    29    63 1   
    51    30    31 1   
    52    30    32 1   
    53    33    34 1   
    54    33    64 1   
    55    34    35 1   
    56    34    65 1   
    57    34    66 1   
    58    35    36 1   
    59    35    67 1   
    60    35    68 1   
    61    36    37 1   
    62    37    38 ar  
    63    37    42 ar  
    64    38    39 ar  
    65    38    69 1   
    66    39    40 ar  
    67    39    70 1   
    68    40    41 ar  
    69    40    71 1   
    70    41    42 ar  
    71    41    72 1   
    72    42    73 1   
    73    43    44 ar  
    74    43    48 ar  
    75    43    78 1   
    76    44    45 ar  
    77    44    74 1   
    78    45    46 ar  
    79    45    75 1   
    80    46    47 ar  
    81    47    48 ar  
    82    47    76 1   
    83    48    77 1   
@<TRIPOS>SUBSTRUCTURE
     1 43B         1 TEMP              0 ****  ****    0 ROOT
