@<TRIPOS>MOLECULE
43B
   78    83     1     0     0
SMALL
abcg2


@<TRIPOS>ATOM
      1 C8          -9.3460     2.6330     0.0540 c3         1 43B      -0.027100
      2 C9          -9.4440     1.1590     0.4780 c3         1 43B      -0.099700
      3 C10         -8.4190     0.3240    -0.2100 cc         1 43B       0.404200
      4 S11         -8.7770    -0.4120    -1.7580 ss         1 43B       0.021800
      5 C12         -7.1650    -1.0330    -1.8040 ca         1 43B      -0.178000
      6 C13         -6.4860    -0.6300    -0.6430 ca         1 43B       0.092400
      7 N14         -7.2260     0.1350     0.2270 nd         1 43B      -0.533100
      8 C15         -5.1620    -1.0120    -0.4490 ca         1 43B      -0.040000
      9 C16         -4.5240    -1.7910    -1.4040 cp         1 43B      -0.048000
     10 C17         -5.2270    -2.1850    -2.5570 ca         1 43B      -0.088000
     11 C18         -6.5420    -1.8160    -2.7670 ca         1 43B      -0.071000
     12 C19         -3.1220    -2.2080    -1.2080 cp         1 43B       0.001000
     13 C20         -2.2430    -2.3120    -2.2890 ca         1 43B      -0.112000
     14 C21         -0.9290    -2.6950    -2.1010 ca         1 43B      -0.061500
     15 C22         -0.4530    -2.9970    -0.8260 ca         1 43B      -0.159600
     16 C23         -1.3240    -2.8920     0.2570 ca         1 43B      -0.061500
     17 C24         -2.6370    -2.5020     0.0670 ca         1 43B      -0.112000
     18 C25          0.9720    -3.3950    -0.6970 c          1 43B       0.651700
     19 N26          1.3350    -3.9800     0.4890 ns         1 43B      -0.583300
     20 S27          2.9040    -4.4800     0.8240 sy         1 43B       1.199300
     21 C28          3.8560    -3.0110     0.7640 ca         1 43B      -0.381500
     22 O29          1.7860    -3.2190    -1.5790 o          1 43B      -0.567100
     23 O30          3.3580    -5.3770    -0.2180 o          1 43B      -0.528000
     24 O31          2.8190    -4.9460     2.1950 o          1 43B      -0.528000
     25 C32          3.8490    -2.1720     1.8530 ca         1 43B       0.108000
     26 C33          4.6100    -1.0090     1.8450 ca         1 43B      -0.315200
     27 C34          5.4190    -0.6600     0.7220 ca         1 43B       0.461000
     28 C35          5.3910    -1.5670    -0.3710 ca         1 43B      -0.246000
     29 C36          4.6360    -2.7050    -0.3570 ca         1 43B       0.098000
     30 N37          4.5400    -0.1940     3.0250 no         1 43B       0.712200
     31 O38          3.8340    -0.5510     3.9400 o          1 43B      -0.422000
     32 O39          5.1930     0.8330     3.0670 o          1 43B      -0.422000
     33 N40          6.1760     0.4350     0.6490 nu         1 43B      -0.932200
     34 C41          7.0010     0.7750    -0.4890 c3         1 43B       0.230800
     35 C42          7.7240     2.0800    -0.1970 c3         1 43B       0.013600
     36 S43          8.7400     2.4790    -1.6380 ss         1 43B      -0.157000
     37 C44          9.5930     3.9420    -1.1530 ca         1 43B      -0.091000
     38 C45         10.4850     4.4740    -2.0880 ca         1 43B      -0.108000
     39 C46         11.2020     5.6220    -1.7920 ca         1 43B      -0.094500
     40 C47         11.0430     6.2560    -0.5650 ca         1 43B      -0.110000
     41 C48         10.1570     5.7280     0.3610 ca         1 43B      -0.094500
     42 C49          9.4310     4.5770     0.0750 ca         1 43B      -0.108000
     43 C1         -12.2430     4.9730     2.2060 ca         1 43B      -0.108000
     44 C2         -10.9440     4.8590     2.6830 ca         1 43B      -0.109000
     45 C3         -10.0070     4.1140     1.9800 ca         1 43B      -0.105000
     46 C4         -10.3500     3.4750     0.7910 ca         1 43B      -0.086300
     47 C5         -11.6560     3.5970     0.3220 ca         1 43B      -0.105000
     48 C6         -12.5970     4.3390     1.0220 ca         1 43B      -0.109000
     49 HD1         -8.3350     2.9930     0.2530 hc         1 43B       0.056700
     50 HD2         -9.5090     2.7120    -1.0240 hc         1 43B       0.056700
     51 HE1        -10.4460     0.7790     0.2690 hc         1 43B       0.070200
     52 HE2         -9.2820     1.0730     1.5540 hc         1 43B       0.070200
     53 HF          -4.6420    -0.6760     0.4400 ha         1 43B       0.135000
     54 HG          -4.7420    -2.8130    -3.2920 ha         1 43B       0.120000
     55 HH          -7.0660    -2.1400    -3.6560 ha         1 43B       0.128000
     56 HI1         -2.5800    -2.0710    -3.2880 ha         1 43B       0.124000
     57 HJ1         -0.2670    -2.7590    -2.9540 ha         1 43B       0.126000
     58 HJ2         -1.0010    -3.0920     1.2700 ha         1 43B       0.126000
     59 HI2         -3.2930    -2.4460     0.9250 ha         1 43B       0.124000
     60 H26          0.6650    -4.1750     1.2230 hn         1 43B       0.350500
     61 HK           3.2540    -2.4080     2.7240 ha         1 43B       0.162000
     62 HL           5.9880    -1.3580    -1.2470 ha         1 43B       0.130000
     63 HM           4.6580    -3.3630    -1.2130 ha         1 43B       0.154000
     64 H40          6.1770     1.0520     1.4450 hn         1 43B       0.537000
     65 HN1          7.7310    -0.0170    -0.6790 h1         1 43B       0.066700
     66 HN2          6.3840     0.8800    -1.3860 h1         1 43B       0.066700
     67 HO1          7.0020     2.8800    -0.0180 h1         1 43B       0.078700
     68 HO2          8.3570     1.9680     0.6840 h1         1 43B       0.078700
     69 HP1         10.6200     3.9920    -3.0490 ha         1 43B       0.118000
     70 HQ1         11.8890     6.0210    -2.5260 ha         1 43B       0.116500
     71 HR          11.6030     7.1530    -0.3370 ha         1 43B       0.118000
     72 HQ2         10.0220     6.2090     1.3210 ha         1 43B       0.116500
     73 HP2          8.7480     4.1940     0.8200 ha         1 43B       0.118000
     74 HB1        -10.6590     5.3510     3.6040 ha         1 43B       0.113500
     75 HC1         -8.9930     4.0320     2.3570 ha         1 43B       0.112000
     76 HC2        -11.9380     3.1100    -0.6050 ha         1 43B       0.112000
     77 HB2        -13.6070     4.4250     0.6410 ha         1 43B       0.113500
     78 HA         -12.9740     5.5570     2.7510 ha         1 43B       0.113000
@<TRIPOS>BOND
     1     1     2 1   
     2     1    46 1   
     3     1    49 1   
     4     1    50 1   
     5     2     3 1   
     6     2    51 1   
     7     2    52 1   
     8     3     4 1   
     9     3     7 2   
    10     4     5 1   
    11     5     6 ar  
    12     5    11 ar  
    13     6     7 1   
    14     6     8 ar  
    15     8     9 ar  
    16     8    53 1   
    17     9    10 ar  
    18     9    12 1   
    19    10    11 ar  
    20    10    54 1   
    21    11    55 1   
    22    12    13 ar  
    23    12    17 ar  
    24    13    14 ar  
    25    13    56 1   
    26    14    15 ar  
    27    14    57 1   
    28    15    16 ar  
    29    15    18 1   
    30    16    17 ar  
    31    16    58 1   
    32    17    59 1   
    33    18    19 1   
    34    18    22 2   
    35    19    20 1   
    36    19    60 1   
    37    20    21 1   
    38    20    23 2   
    39    20    24 2   
    40    21    25 ar  
    41    21    29 ar  
    42    25    26 ar  
    43    25    61 1   
    44    26    27 ar  
    45    26    30 1   
    46    27    28 ar  
    47    27    33 1   
    48    28    29 ar  
    49    28    62 1   
    50    29    63 1   
    51    30    31 1   
    52    30    32 1   
    53    33    34 1   
    54    33    64 1   
    55    34    35 1   
    56    34    65 1   
    57    34    66 1   
    58    35    36 1   
    59    35    67 1   
    60    35    68 1   
    61    36    37 1   
    62    37    38 ar  
    63    37    42 ar  
    64    38    39 ar  
    65    38    69 1   
    66    39    40 ar  
    67    39    70 1   
    68    40    41 ar  
    69    40    71 1   
    70    41    42 ar  
    71    41    72 1   
    72    42    73 1   
    73    43    44 ar  
    74    43    48 ar  
    75    43    78 1   
    76    44    45 ar  
    77    44    74 1   
    78    45    46 ar  
    79    45    75 1   
    80    46    47 ar  
    81    47    48 ar  
    82    47    76 1   
    83    48    77 1   
@<TRIPOS>SUBSTRUCTURE
     1 43B         1 TEMP              0 ****  ****    0 ROOT
