@<TRIPOS>MOLECULE
43C
   45    48     1     0     0
SMALL
bcc


@<TRIPOS>ATOM
      1 CAA          7.2270    -0.6570    -0.4570 c3         1 43C      -0.111400
      2 CAT          5.7660    -0.3780    -0.4690 cc         1 43C       0.282600
      3 CAN          4.7160    -1.2240    -0.7200 cd         1 43C      -0.250600
      4 NAR          5.2450     0.8420    -0.1990 nc         1 43C      -0.355000
      5 NAS          3.9600     0.7880    -0.2680 nd         1 43C      -0.198800
      6 NAZ          3.6240    -0.4490    -0.5870 na         1 43C       0.094400
      7 CAO          2.2350    -0.8340    -0.6660 c3         1 43C       0.028300
      8 CAP          1.7150    -1.2340     0.7150 c3         1 43C       0.023300
      9 NBA          0.3370    -1.6670     0.6460 na         1 43C      -0.187900
     10 CAM         -0.0650    -2.9560     0.6170 cc         1 43C       0.402400
     11 NAQ         -1.3450    -3.0660     0.3970 nd         1 43C      -0.661000
     12 CAX         -1.8140    -1.7900     0.2610 cd         1 43C       0.391800
     13 CAV         -3.2350    -1.5300     0.0160 ca         1 43C      -0.116500
     14 CAG         -3.9940    -2.4680    -0.6880 ca         1 43C      -0.107000
     15 CAE         -5.3410    -2.2500    -0.9310 ca         1 43C      -0.134500
     16 CAD         -5.9570    -1.0910    -0.4750 ca         1 43C      -0.122000
     17 CAF         -5.2140    -0.1580     0.2360 ca         1 43C      -0.134500
     18 CAH         -3.8660    -0.3760     0.4840 ca         1 43C      -0.107000
     19 CAY         -0.7760    -0.8950     0.4030 cc         1 43C      -0.168600
     20 CAW         -0.7310     0.5640     0.2900 ca         1 43C      -0.002000
     21 CAK         -1.1970     1.1810    -0.8720 ca         1 43C      -0.118000
     22 CAI         -1.1610     2.5560    -1.0030 ca         1 43C      -0.088500
     23 CAU         -0.6450     3.3330     0.0340 ca         1 43C      -0.006000
     24 CAC         -0.5980     4.7530    -0.0980 cg         1 43C       0.230800
     25 NAB         -0.5640     5.9000    -0.2040 n1         1 43C      -0.353800
     26 CAJ         -0.1770     2.7300     1.2010 ca         1 43C      -0.088500
     27 CAL         -0.2270     1.3530     1.3250 ca         1 43C      -0.118000
     28 H1           7.5790    -0.8960     0.5480 hc         1 43C       0.050033
     29 H2           7.4700    -1.5010    -1.1000 hc         1 43C       0.050033
     30 H3           7.7910     0.2080    -0.8050 hc         1 43C       0.050033
     31 H4           4.6660    -2.2680    -0.9790 h4         1 43C       0.184000
     32 H5           1.6750     0.0080    -1.0710 h1         1 43C       0.084700
     33 H6           2.1450    -1.6660    -1.3620 h1         1 43C       0.084700
     34 H7           2.3010    -2.0630     1.1090 h1         1 43C       0.077700
     35 H8           1.8180    -0.4050     1.4130 h1         1 43C       0.077700
     36 H9           0.6270    -3.7710     0.7690 h5         1 43C       0.057100
     37 H10         -3.5200    -3.3700    -1.0510 ha         1 43C       0.139000
     38 H11         -5.9110    -2.9860    -1.4830 ha         1 43C       0.131000
     39 H12         -7.0080    -0.9190    -0.6670 ha         1 43C       0.130000
     40 H13         -5.6860     0.7420     0.6110 ha         1 43C       0.131000
     41 H14         -3.3120     0.3510     1.0630 ha         1 43C       0.139000
     42 H15         -1.5870     0.5800    -1.6820 ha         1 43C       0.145000
     43 H16         -1.5240     3.0250    -1.9070 ha         1 43C       0.149500
     44 H17          0.2140     3.3330     2.0090 ha         1 43C       0.149500
     45 H18          0.1100     0.8960     2.2450 ha         1 43C       0.145000
@<TRIPOS>BOND
     1     1     2 1   
     2     1    28 1   
     3     1    29 1   
     4     1    30 1   
     5     2     3 2   
     6     2     4 1   
     7     3     6 1   
     8     3    31 1   
     9     4     5 2   
    10     5     6 1   
    11     6     7 1   
    12     7     8 1   
    13     7    32 1   
    14     7    33 1   
    15     8     9 1   
    16     8    34 1   
    17     8    35 1   
    18     9    10 1   
    19     9    19 1   
    20    10    11 2   
    21    10    36 1   
    22    11    12 1   
    23    12    13 1   
    24    12    19 2   
    25    13    14 ar  
    26    13    18 ar  
    27    14    15 ar  
    28    14    37 1   
    29    15    16 ar  
    30    15    38 1   
    31    16    17 ar  
    32    16    39 1   
    33    17    18 ar  
    34    17    40 1   
    35    18    41 1   
    36    19    20 1   
    37    20    21 ar  
    38    20    27 ar  
    39    21    22 ar  
    40    21    42 1   
    41    22    23 ar  
    42    22    43 1   
    43    23    24 1   
    44    23    26 ar  
    45    24    25 3   
    46    26    27 ar  
    47    26    44 1   
    48    27    45 1   
@<TRIPOS>SUBSTRUCTURE
     1 43C         1 TEMP              0 ****  ****    0 ROOT
