@<TRIPOS>MOLECULE
43C
   45    48     1     0     0
SMALL
No Charge or Current Charge


@<TRIPOS>ATOM
      1 CAA          7.3530    -0.4860    -0.3530 c3         1 43C      -0.111400
      2 CAT          5.8730    -0.2420    -0.3230 cc         1 43C       0.217300
      3 CAN          4.8750    -1.0980    -0.6670 cd         1 43C      -0.218000
      4 NAR          5.3600     0.9550     0.0840 nc         1 43C      -0.355000
      5 NAS          4.0540     0.8910     0.0110 nd         1 43C      -0.198800
      6 NAZ          3.7340    -0.3600    -0.4490 na         1 43C       0.115800
      7 CAO          2.3410    -0.7830    -0.6420 c3         1 43C       0.057600
      8 CAP          1.7410    -1.4410     0.6160 c3         1 43C       0.052600
      9 NBA          0.3350    -1.8460     0.4400 na         1 43C      -0.166500
     10 CAM         -0.1360    -3.1390     0.3530 cc         1 43C       0.402400
     11 NAQ         -1.4460    -3.1600     0.1480 nd         1 43C      -0.661000
     12 CAX         -1.8550    -1.8380     0.0900 cd         1 43C       0.326500
     13 CAV         -3.2990    -1.4940    -0.0460 ca         1 43C      -0.116500
     14 CAG         -4.2150    -2.4830    -0.4800 ca         1 43C      -0.089000
     15 CAE         -5.5870    -2.2030    -0.5940 ca         1 43C      -0.116500
     16 CAD         -6.0770    -0.9330    -0.2580 ca         1 43C      -0.104000
     17 CAF         -5.1920     0.0500     0.2080 ca         1 43C      -0.116500
     18 CAH         -3.8190    -0.2290     0.3220 ca         1 43C      -0.089000
     19 CAY         -0.7550    -1.0210     0.2760 cc         1 43C      -0.154000
     20 CAW         -0.7460     0.4350     0.1850 ca         1 43C      -0.002000
     21 CAK         -1.1740     1.0720    -0.9960 ca         1 43C      -0.100000
     22 CAI         -1.1410     2.4730    -1.0990 ca         1 43C      -0.070500
     23 CAU         -0.6710     3.2500    -0.0220 ca         1 43C      -0.006000
     24 CAC         -0.6360     4.6840    -0.1260 cg         1 43C       0.320000
     25 NAB         -0.6160     5.8480    -0.2110 n1         1 43C      -0.443000
     26 CAJ         -0.2350     2.6140     1.1560 ca         1 43C      -0.070500
     27 CAL         -0.2700     1.2130     1.2560 ca         1 43C      -0.100000
     28 H1           7.7860    -0.3750     0.6480 hc         1 43C       0.050033
     29 H2           7.5760    -1.4990    -0.7080 hc         1 43C       0.050033
     30 H3           7.8520     0.2250    -1.0220 hc         1 43C       0.050033
     31 H4           4.8870    -2.1180    -1.0280 h4         1 43C       0.166000
     32 H5           1.7470     0.0960    -0.9190 h1         1 43C       0.084700
     33 H6           2.3030    -1.4900    -1.4790 h1         1 43C       0.084700
     34 H7           2.3360    -2.3250     0.8780 h1         1 43C       0.077700
     35 H8           1.8040    -0.7400     1.4570 h1         1 43C       0.077700
     36 H9           0.5150    -4.0010     0.4420 h5         1 43C       0.057100
     37 H10         -3.8640    -3.4770    -0.7490 ha         1 43C       0.121000
     38 H11         -6.2710    -2.9730    -0.9440 ha         1 43C       0.113000
     39 H12         -7.1400    -0.7160    -0.3440 ha         1 43C       0.112000
     40 H13         -5.5710     1.0290     0.4920 ha         1 43C       0.113000
     41 H14         -3.1800     0.5460     0.7310 ha         1 43C       0.121000
     42 H15         -1.5310     0.4780    -1.8340 ha         1 43C       0.127000
     43 H16         -1.4770     2.9530    -2.0160 ha         1 43C       0.131500
     44 H17          0.1310     3.2040     1.9940 ha         1 43C       0.131500
     45 H18          0.0640     0.7300     2.1720 ha         1 43C       0.127000
@<TRIPOS>BOND
     1     1     2 1   
     2     1    28 1   
     3     1    29 1   
     4     1    30 1   
     5     2     3 2   
     6     2     4 1   
     7     3     6 1   
     8     3    31 1   
     9     4     5 2   
    10     5     6 1   
    11     6     7 1   
    12     7     8 1   
    13     7    32 1   
    14     7    33 1   
    15     8     9 1   
    16     8    34 1   
    17     8    35 1   
    18     9    10 1   
    19     9    19 1   
    20    10    11 2   
    21    10    36 1   
    22    11    12 1   
    23    12    13 1   
    24    12    19 2   
    25    13    14 ar  
    26    13    18 ar  
    27    14    15 ar  
    28    14    37 1   
    29    15    16 ar  
    30    15    38 1   
    31    16    17 ar  
    32    16    39 1   
    33    17    18 ar  
    34    17    40 1   
    35    18    41 1   
    36    19    20 1   
    37    20    21 ar  
    38    20    27 ar  
    39    21    22 ar  
    40    21    42 1   
    41    22    23 ar  
    42    22    43 1   
    43    23    24 1   
    44    23    26 ar  
    45    24    25 3   
    46    26    27 ar  
    47    26    44 1   
    48    27    45 1   
@<TRIPOS>SUBSTRUCTURE
     1 43C         1 TEMP              0 ****  ****    0 ROOT
