@<TRIPOS>MOLECULE
43D
   45    48     1     0     0
SMALL
abcg2


@<TRIPOS>ATOM
      1 CAA          7.2930    -0.9410    -0.5330 c3         1 43D      -0.110400
      2 CAS          5.8480    -0.5870    -0.5160 cc         1 43D       0.217300
      3 CAK          4.7540    -1.3680    -0.7890 cd         1 43D      -0.220000
      4 NAQ          5.3940     0.6450    -0.1930 nc         1 43D      -0.356000
      5 NAR          4.1060     0.6600    -0.2510 nd         1 43D      -0.198800
      6 NAZ          3.7040    -0.5440    -0.6150 na         1 43D       0.117800
      7 CAM          2.2970    -0.8550    -0.6960 c3         1 43D       0.057600
      8 CAN          1.7680    -1.2910     0.6700 c3         1 43D       0.054600
      9 NBA          0.3700    -1.6520     0.5970 na         1 43D      -0.167500
     10 CAJ         -0.1000    -2.9150     0.5500 cc         1 43D       0.404400
     11 NAO         -1.3870    -2.9560     0.3420 nd         1 43D      -0.673000
     12 CAW         -1.7870    -1.6540     0.2240 cd         1 43D       0.377500
     13 CAV         -3.1830    -1.3200     0.0110 cd         1 43D      -0.246500
     14 CAL         -4.1580    -2.1710    -0.4750 cc         1 43D      -0.133000
     15 CAI         -3.8820    -0.1210     0.2540 cd         1 43D       0.255900
     16 NAP         -5.1590    -0.2340    -0.0610 nc         1 43D      -0.529800
     17 NAY         -5.3070    -1.4790    -0.5010 na         1 43D       0.130800
     18 CAB         -6.6020    -1.9450    -0.9340 c3         1 43D       0.072900
     19 CAX         -0.7040    -0.8180     0.3700 cc         1 43D      -0.166000
     20 CAU         -0.5940     0.6390     0.2970 ca         1 43D       0.004000
     21 CAG         -1.0430     1.3080    -0.8440 ca         1 43D      -0.102000
     22 CAE         -0.9500     2.6830    -0.9400 ca         1 43D      -0.070500
     23 CAT         -0.3880     3.4090     0.1110 ca         1 43D      -0.009000
     24 CAD         -0.2790     4.8280     0.0140 cg         1 43D       0.321000
     25 NAC         -0.1920     5.9740    -0.0650 n1         1 43D      -0.445000
     26 CAF          0.0650     2.7560     1.2560 ca         1 43D      -0.070500
     27 CAH         -0.0460     1.3800     1.3450 ca         1 43D      -0.102000
     28 H1           7.6550    -1.1890     0.4660 hc         1 43D       0.049700
     29 H2           7.4770    -1.8020    -1.1720 hc         1 43D       0.049700
     30 H3           7.8940    -0.1100    -0.9010 hc         1 43D       0.049700
     31 H4           4.6490    -2.3970    -1.0890 h4         1 43D       0.166000
     32 H5           1.7790     0.0330    -1.0550 h1         1 43D       0.085200
     33 H6           2.1600    -1.6490    -1.4290 h1         1 43D       0.085200
     34 H7           2.3150    -2.1660     1.0200 h1         1 43D       0.076700
     35 H8           1.9190    -0.5010     1.4050 h1         1 43D       0.076700
     36 H9           0.5500    -3.7690     0.6810 h5         1 43D       0.055100
     37 H10         -4.1010    -3.1980    -0.7970 h4         1 43D       0.164000
     38 H11         -3.5060     0.8070     0.6570 h4         1 43D       0.041100
     39 H12         -7.3160    -1.8980    -0.1130 h1         1 43D       0.056700
     40 H13         -6.9660    -1.3360    -1.7590 h1         1 43D       0.056700
     41 H14         -6.5140    -2.9750    -1.2670 h1         1 43D       0.056700
     42 H15         -1.4650     0.7450    -1.6660 ha         1 43D       0.126500
     43 H16         -1.3000     3.1920    -1.8280 ha         1 43D       0.130500
     44 H17          0.4920     3.3190     2.0740 ha         1 43D       0.130500
     45 H18          0.2810     0.8840     2.2490 ha         1 43D       0.126500
@<TRIPOS>BOND
     1     1     2 1   
     2     1    28 1   
     3     1    29 1   
     4     1    30 1   
     5     2     3 2   
     6     2     4 1   
     7     3     6 1   
     8     3    31 1   
     9     4     5 2   
    10     5     6 1   
    11     6     7 1   
    12     7     8 1   
    13     7    32 1   
    14     7    33 1   
    15     8     9 1   
    16     8    34 1   
    17     8    35 1   
    18     9    10 1   
    19     9    19 1   
    20    10    11 2   
    21    10    36 1   
    22    11    12 1   
    23    12    13 1   
    24    12    19 2   
    25    13    14 2   
    26    13    15 1   
    27    14    17 1   
    28    14    37 1   
    29    15    16 2   
    30    15    38 1   
    31    16    17 1   
    32    17    18 1   
    33    18    39 1   
    34    18    40 1   
    35    18    41 1   
    36    19    20 1   
    37    20    21 ar  
    38    20    27 ar  
    39    21    22 ar  
    40    21    42 1   
    41    22    23 ar  
    42    22    43 1   
    43    23    24 1   
    44    23    26 ar  
    45    24    25 3   
    46    26    27 ar  
    47    26    44 1   
    48    27    45 1   
@<TRIPOS>SUBSTRUCTURE
     1 43D         1 TEMP              0 ****  ****    0 ROOT
