@<TRIPOS>MOLECULE
43D
   45    48     1     0     0
SMALL
No Charge or Current Charge


@<TRIPOS>ATOM
      1 CAA          7.4200    -0.7440    -0.3990 c3         1 43D      -0.110400
      2 CAS          5.9490    -0.4480    -0.4070 cc         1 43D       0.217300
      3 CAK          4.9270    -1.2850    -0.7270 cd         1 43D      -0.220000
      4 NAQ          5.4710     0.7830    -0.0640 nc         1 43D      -0.356000
      5 NAR          4.1650     0.7600    -0.1560 nd         1 43D      -0.198800
      6 NAZ          3.8090    -0.5000    -0.5640 na         1 43D       0.117800
      7 CAM          2.4060    -0.8850    -0.7620 c3         1 43D       0.057600
      8 CAN          1.7680    -1.4750     0.5090 c3         1 43D       0.054600
      9 NBA          0.3540    -1.8410     0.3250 na         1 43D      -0.167500
     10 CAJ         -0.1610    -3.1210     0.2320 cc         1 43D       0.404400
     11 NAO         -1.4780    -3.1030     0.0630 nd         1 43D      -0.673000
     12 CAW         -1.8300    -1.7690     0.0490 cd         1 43D       0.377500
     13 CAV         -3.1850    -1.2920    -0.0760 cd         1 43D      -0.246500
     14 CAL         -4.2410    -2.1420    -0.2490 cc         1 43D      -0.133000
     15 CAI         -3.6880     0.0250    -0.0270 cd         1 43D       0.255900
     16 NAP         -5.0010     0.0540    -0.1710 nc         1 43D      -0.529800
     17 NAY         -5.3330    -1.2820    -0.3100 na         1 43D       0.130800
     18 CAB         -6.7380    -1.6740    -0.4950 c3         1 43D       0.072900
     19 CAX         -0.7090    -0.9790     0.1870 cc         1 43D      -0.166000
     20 CAU         -0.6610     0.4760     0.1630 ca         1 43D       0.004000
     21 CAG         -0.8140     1.1670    -1.0520 ca         1 43D      -0.102000
     22 CAE         -0.7360     2.5710    -1.0840 ca         1 43D      -0.070500
     23 CAT         -0.4940     3.2910     0.1020 ca         1 43D      -0.009000
     24 CAD         -0.4120     4.7260     0.0720 cg         1 43D       0.321000
     25 NAC         -0.3560     5.8920     0.0470 n1         1 43D      -0.445000
     26 CAF         -0.3280     2.5970     1.3170 ca         1 43D      -0.070500
     27 CAH         -0.4070     1.1940     1.3440 ca         1 43D      -0.102000
     28 H1           7.8410    -0.5990     0.6030 hc         1 43D       0.049700
     29 H2           7.6140    -1.7790    -0.7010 hc         1 43D       0.049700
     30 H3           7.9540    -0.0830    -1.0930 hc         1 43D       0.049700
     31 H4           4.9110    -2.3210    -1.0420 h4         1 43D       0.166000
     32 H5           1.8440     0.0020    -1.0790 h1         1 43D       0.085200
     33 H6           2.3570    -1.6210    -1.5730 h1         1 43D       0.085200
     34 H7           2.3300    -2.3660     0.8170 h1         1 43D       0.076700
     35 H8           1.8350    -0.7410     1.3220 h1         1 43D       0.076700
     36 H9           0.4660    -4.0030     0.2940 h5         1 43D       0.055100
     37 H10         -4.3110    -3.2200    -0.3330 h4         1 43D       0.164000
     38 H11         -3.1670     0.9590     0.1230 h4         1 43D       0.041100
     39 H12         -7.3230    -1.3610     0.3780 h1         1 43D       0.056700
     40 H13         -7.1370    -1.1930    -1.3950 h1         1 43D       0.056700
     41 H14         -6.8080    -2.7630    -0.6050 h1         1 43D       0.056700
     42 H15         -0.9950     0.6150    -1.9720 ha         1 43D       0.126500
     43 H16         -0.8610     3.0950    -2.0290 ha         1 43D       0.130500
     44 H17         -0.1350     3.1430     2.2390 ha         1 43D       0.130500
     45 H18         -0.2730     0.6630     2.2840 ha         1 43D       0.126500
@<TRIPOS>BOND
     1     1     2 1   
     2     1    28 1   
     3     1    29 1   
     4     1    30 1   
     5     2     3 2   
     6     2     4 1   
     7     3     6 1   
     8     3    31 1   
     9     4     5 2   
    10     5     6 1   
    11     6     7 1   
    12     7     8 1   
    13     7    32 1   
    14     7    33 1   
    15     8     9 1   
    16     8    34 1   
    17     8    35 1   
    18     9    10 1   
    19     9    19 1   
    20    10    11 2   
    21    10    36 1   
    22    11    12 1   
    23    12    13 1   
    24    12    19 2   
    25    13    14 2   
    26    13    15 1   
    27    14    17 1   
    28    14    37 1   
    29    15    16 2   
    30    15    38 1   
    31    16    17 1   
    32    17    18 1   
    33    18    39 1   
    34    18    40 1   
    35    18    41 1   
    36    19    20 1   
    37    20    21 ar  
    38    20    27 ar  
    39    21    22 ar  
    40    21    42 1   
    41    22    23 ar  
    42    22    43 1   
    43    23    24 1   
    44    23    26 ar  
    45    24    25 3   
    46    26    27 ar  
    47    26    44 1   
    48    27    45 1   
@<TRIPOS>SUBSTRUCTURE
     1 43D         1 TEMP              0 ****  ****    0 ROOT
