@<TRIPOS>MOLECULE
43F
   30    31     1     0     0
SMALL
abcg2


@<TRIPOS>ATOM
      1 C1           0.9460    -0.4940    -0.5100 ca         1 43F       0.061100
      2 C2           1.5070    -0.1220     0.7220 ca         1 43F       0.133100
      3 C3           2.7720     0.4470     0.7300 ca         1 43F      -0.176000
      4 C4           3.4700     0.6420    -0.4630 ca         1 43F      -0.060300
      5 C5           2.9020     0.2620    -1.6690 ca         1 43F      -0.121000
      6 C6           1.6310    -0.3010    -1.6890 ca         1 43F      -0.076000
      7 O7          -0.2810    -1.1060    -0.5260 os         1 43F      -0.217200
      8 C8          -1.3910    -0.3610    -0.3260 ca         1 43F       0.156100
      9 C9          -2.5880    -1.0520    -0.1480 ca         1 43F       0.091000
     10 C10         -3.7830    -0.3800     0.0360 ca         1 43F      -0.067000
     11 C11         -3.7780     1.0060     0.0450 ca         1 43F       0.089000
     12 C12         -2.6010     1.7120    -0.1300 ca         1 43F      -0.069000
     13 C13         -1.4110     1.0270    -0.3170 ca         1 43F      -0.168000
     14 C14          4.8360     1.2430    -0.4280 c3         1 43F       0.175900
     15 CL1          6.0600     0.0100     0.0860 cl         1 43F      -0.280000
     16 CL2         -5.2680     1.8570     0.2780 cl         1 43F      -0.196000
     17 CL3         -2.5720    -2.7770    -0.1620 cl         1 43F      -0.171000
     18 O18          0.7510    -0.3490     1.8030 os         1 43F      -0.322100
     19 CAA          1.2610     0.0170     3.0730 c3         1 43F       0.144900
     20 H6           1.1740    -0.5960    -2.6250 ha         1 43F       0.136000
     21 H3           3.2340     0.7460     1.6620 ha         1 43F       0.126000
     22 H5           3.4390     0.4100    -2.5970 ha         1 43F       0.124000
     23 H141         5.1460     1.5970    -1.4080 h1         1 43F       0.071700
     24 H142         4.9090     2.0600     0.2850 h1         1 43F       0.071700
     25 H13         -0.5000     1.5930    -0.4630 ha         1 43F       0.130000
     26 H10         -4.7010    -0.9350     0.1740 ha         1 43F       0.144000
     27 H12         -2.5990     2.7930    -0.1250 ha         1 43F       0.131000
     28 HAA1         0.4980    -0.2550     3.7970 h1         1 43F       0.046367
     29 HAA2         2.1820    -0.5210     3.3110 h1         1 43F       0.046367
     30 HAA3         1.4480     1.0910     3.1410 h1         1 43F       0.046367
@<TRIPOS>BOND
     1     1     2 ar  
     2     1     6 ar  
     3     1     7 1   
     4     2     3 ar  
     5     2    18 1   
     6     3     4 ar  
     7     3    21 1   
     8     4     5 ar  
     9     4    14 1   
    10     5     6 ar  
    11     5    22 1   
    12     6    20 1   
    13     7     8 1   
    14     8     9 ar  
    15     8    13 ar  
    16     9    10 ar  
    17     9    17 1   
    18    10    11 ar  
    19    10    26 1   
    20    11    12 ar  
    21    11    16 1   
    22    12    13 ar  
    23    12    27 1   
    24    13    25 1   
    25    14    15 1   
    26    14    23 1   
    27    14    24 1   
    28    18    19 1   
    29    19    28 1   
    30    19    29 1   
    31    19    30 1   
@<TRIPOS>SUBSTRUCTURE
     1 43F         1 TEMP              0 ****  ****    0 ROOT
