@<TRIPOS>MOLECULE
43F
   30    31     1     0     0
SMALL
No Charge or Current Charge


@<TRIPOS>ATOM
      1 C1           0.9740    -0.4630    -0.7290 ca         1 43F       0.061100
      2 C2           1.4440    -0.0860     0.5530 ca         1 43F       0.133100
      3 C3           2.7460     0.4520     0.6790 ca         1 43F      -0.176000
      4 C4           3.5710     0.6040    -0.4530 ca         1 43F      -0.060300
      5 C5           3.0950     0.2100    -1.7180 ca         1 43F      -0.121000
      6 C6           1.8030    -0.3240    -1.8540 ca         1 43F      -0.076000
      7 O7          -0.2870    -0.9900    -0.9040 os         1 43F      -0.217200
      8 C8          -1.4300    -0.3360    -0.4930 ca         1 43F       0.156100
      9 C9          -2.5550    -1.0870    -0.0890 ca         1 43F       0.091000
     10 C10         -3.7270    -0.4330     0.3280 ca         1 43F      -0.067000
     11 C11         -3.7820     0.9710     0.3370 ca         1 43F       0.089000
     12 C12         -2.6690     1.7250    -0.0730 ca         1 43F      -0.069000
     13 C13         -1.4940     1.0740    -0.4910 ca         1 43F      -0.168000
     14 C14          4.9750     1.1800    -0.3080 c3         1 43F       0.175900
     15 Cl1          6.1770    -0.1160     0.1220 cl         1 43F      -0.280000
     16 Cl2         -5.2490     1.7870     0.8590 cl         1 43F      -0.196000
     17 Cl3         -2.5080    -2.8500    -0.0900 cl         1 43F      -0.171000
     18 O18          0.6190    -0.2670     1.6500 os         1 43F      -0.322100
     19 CAA          1.0090     0.1080     2.9830 c3         1 43F       0.144900
     20 H6           1.4400    -0.6260    -2.8330 ha         1 43F       0.136000
     21 H3           3.1360     0.7500     1.6480 ha         1 43F       0.126000
     22 H5           3.7270     0.3150    -2.5970 ha         1 43F       0.124000
     23 H141         5.3030     1.6430    -1.2470 h1         1 43F       0.071700
     24 H142         5.0000     1.9370     0.4860 h1         1 43F       0.071700
     25 H13         -0.6400     1.6650    -0.8130 ha         1 43F       0.130000
     26 H10         -4.5900    -1.0120     0.6430 ha         1 43F       0.144000
     27 H12         -2.7190     2.8110    -0.0680 ha         1 43F       0.131000
     28 HAA1         0.2020    -0.1170     3.6910 h1         1 43F       0.046367
     29 HAA2         1.9020    -0.4460     3.2990 h1         1 43F       0.046367
     30 HAA3         1.2200     1.1830     3.0400 h1         1 43F       0.046367
@<TRIPOS>BOND
     1     1     2 ar  
     2     1     6 ar  
     3     1     7 1   
     4     2     3 ar  
     5     2    18 1   
     6     3     4 ar  
     7     3    21 1   
     8     4     5 ar  
     9     4    14 1   
    10     5     6 ar  
    11     5    22 1   
    12     6    20 1   
    13     7     8 1   
    14     8     9 ar  
    15     8    13 ar  
    16     9    10 ar  
    17     9    17 1   
    18    10    11 ar  
    19    10    26 1   
    20    11    12 ar  
    21    11    16 1   
    22    12    13 ar  
    23    12    27 1   
    24    13    25 1   
    25    14    15 1   
    26    14    23 1   
    27    14    24 1   
    28    18    19 1   
    29    19    28 1   
    30    19    29 1   
    31    19    30 1   
@<TRIPOS>SUBSTRUCTURE
     1 43F         1 TEMP              0 ****  ****    0 ROOT
