@<TRIPOS>MOLECULE
43G
   33    35     1     0     0
SMALL
No Charge or Current Charge


@<TRIPOS>ATOM
      1 C           -3.7270     0.0120    -1.0170 cc         1 43G      -0.033100
      2 C1          -2.5060    -0.5910    -0.8100 cd         1 43G      -0.049000
      3 N           -1.7980    -0.1080     0.3130 na         1 43G      -0.494000
      4 C2          -2.1370     0.9020     1.2290 cc         1 43G       0.051000
      5 C3          -3.3690     1.4660     0.9690 cd         1 43G      -0.377200
      6 C4          -4.2420     1.0830    -0.1350 c          1 43G       0.544500
      7 O           -5.3290     1.6220    -0.3150 o          1 43G      -0.600100
      8 O5          -4.5490    -0.3290    -2.0450 oh         1 43G      -0.526100
      9 C6          -0.5670    -0.7500     0.4490 ca         1 43G       0.254000
     10 C7           0.6210    -0.0710     0.1280 ca         1 43G      -0.112000
     11 C8           1.8870    -0.6960     0.2570 cp         1 43G      -0.011000
     12 C9           1.9180    -2.0350     0.7240 ca         1 43G      -0.099000
     13 C10          0.7340    -2.7180     1.0500 ca         1 43G      -0.094000
     14 C11         -0.5070    -2.0750     0.9140 ca         1 43G      -0.112000
     15 C12          3.1490     0.0330    -0.0900 cp         1 43G      -0.046000
     16 C13          4.2520    -0.6450    -0.6700 ca         1 43G      -0.095500
     17 C14          5.4360     0.0400    -0.9960 ca         1 43G      -0.109000
     18 C15          5.5430     1.4170    -0.7480 ca         1 43G      -0.100000
     19 C16          4.4650     2.1090    -0.1740 ca         1 43G      -0.109000
     20 C17          3.2810     1.4250     0.1510 ca         1 43G      -0.095500
     21 H1          -2.0850    -1.3770    -1.4340 h4         1 43G       0.220000
     22 H2          -1.4560     1.1580     2.0390 h4         1 43G       0.205000
     23 H4          -3.7650     2.2540     1.5980 ha         1 43G       0.211000
     24 H6          -5.3460     0.2480    -1.9630 ho         1 43G       0.493000
     25 H7           0.5550     0.9480    -0.2420 ha         1 43G       0.130000
     26 H8           2.8700    -2.5450     0.8500 ha         1 43G       0.123000
     27 H9           0.7790    -3.7430     1.4130 ha         1 43G       0.123000
     28 H10         -1.4230    -2.6010     1.1690 ha         1 43G       0.132000
     29 H11          4.1860    -1.7090    -0.8830 ha         1 43G       0.113500
     30 H12          6.2680    -0.4980    -1.4440 ha         1 43G       0.116000
     31 H13          6.4590     1.9470    -1.0000 ha         1 43G       0.116000
     32 H14          4.5470     3.1760     0.0220 ha         1 43G       0.116000
     33 H15          2.4640     1.9780     0.6070 ha         1 43G       0.113500
@<TRIPOS>BOND
     1     1     2 2   
     2     1     6 1   
     3     1     8 1   
     4     2     3 1   
     5     2    21 1   
     6     3     4 1   
     7     3     9 1   
     8     4     5 2   
     9     4    22 1   
    10     5     6 1   
    11     5    23 1   
    12     6     7 2   
    13     8    24 1   
    14     9    10 ar  
    15     9    14 ar  
    16    10    11 ar  
    17    10    25 1   
    18    11    12 ar  
    19    11    15 1   
    20    12    13 ar  
    21    12    26 1   
    22    13    14 ar  
    23    13    27 1   
    24    14    28 1   
    25    15    16 ar  
    26    15    20 ar  
    27    16    17 ar  
    28    16    29 1   
    29    17    18 ar  
    30    17    30 1   
    31    18    19 ar  
    32    18    31 1   
    33    19    20 ar  
    34    19    32 1   
    35    20    33 1   
@<TRIPOS>SUBSTRUCTURE
     1 43G         1 TEMP              0 ****  ****    0 ROOT
