@<TRIPOS>MOLECULE
43G
   33    35     1     0     0
SMALL
abcg2


@<TRIPOS>ATOM
      1 C           -3.9510    -0.1140    -0.7200 cc         1 43G      -0.033100
      2 C1          -2.7470    -0.7170    -0.5820 cd         1 43G      -0.049000
      3 N           -1.7450    -0.1280     0.1460 na         1 43G      -0.494000
      4 C2          -1.9530     1.0710     0.7300 cc         1 43G       0.051000
      5 C3          -3.1380     1.7310     0.6190 cd         1 43G      -0.377200
      6 C4          -4.2300     1.1790    -0.1170 c          1 43G       0.544500
      7 O           -5.3460     1.6990    -0.2730 o          1 43G      -0.600100
      8 O5          -4.9310    -0.6820    -1.4370 oh         1 43G      -0.526100
      9 C6          -0.4950    -0.7920     0.2940 ca         1 43G       0.254000
     10 C7           0.6770    -0.0930     0.0510 ca         1 43G      -0.112000
     11 C8           1.9150    -0.7160     0.2070 cp         1 43G      -0.011000
     12 C9           1.9430    -2.0580     0.5870 ca         1 43G      -0.099000
     13 C10          0.7660    -2.7540     0.8110 ca         1 43G      -0.094000
     14 C11         -0.4630    -2.1270     0.6750 ca         1 43G      -0.112000
     15 C12          3.1630     0.0340    -0.0410 cp         1 43G      -0.046000
     16 C13          4.2580    -0.5840    -0.6480 ca         1 43G      -0.095500
     17 C14          5.4290     0.1220    -0.8820 ca         1 43G      -0.109000
     18 C15          5.5260     1.4570    -0.5140 ca         1 43G      -0.100000
     19 C16          4.4440     2.0810     0.0920 ca         1 43G      -0.109000
     20 C17          3.2730     1.3760     0.3270 ca         1 43G      -0.095500
     21 H1          -2.5160    -1.6630    -1.0490 h4         1 43G       0.220000
     22 H2          -1.1330     1.4700     1.3090 h4         1 43G       0.205000
     23 H4          -3.2510     2.6850     1.1160 ha         1 43G       0.211000
     24 H6          -5.6870    -0.0730    -1.4050 ho         1 43G       0.493000
     25 H7           0.6260     0.9320    -0.2950 ha         1 43G       0.130000
     26 H8           2.8910    -2.5600     0.7290 ha         1 43G       0.123000
     27 H9           0.8040    -3.7910     1.1160 ha         1 43G       0.123000
     28 H10         -1.3790    -2.6650     0.8800 ha         1 43G       0.132000
     29 H11          4.1910    -1.6190    -0.9600 ha         1 43G       0.113500
     30 H12          6.2650    -0.3720    -1.3610 ha         1 43G       0.116000
     31 H13          6.4390     2.0080    -0.6990 ha         1 43G       0.116000
     32 H14          4.5130     3.1190     0.3900 ha         1 43G       0.116000
     33 H15          2.4460     1.8700     0.8200 ha         1 43G       0.113500
@<TRIPOS>BOND
     1     1     2 2   
     2     1     6 1   
     3     1     8 1   
     4     2     3 1   
     5     2    21 1   
     6     3     4 1   
     7     3     9 1   
     8     4     5 2   
     9     4    22 1   
    10     5     6 1   
    11     5    23 1   
    12     6     7 2   
    13     8    24 1   
    14     9    10 ar  
    15     9    14 ar  
    16    10    11 ar  
    17    10    25 1   
    18    11    12 ar  
    19    11    15 1   
    20    12    13 ar  
    21    12    26 1   
    22    13    14 ar  
    23    13    27 1   
    24    14    28 1   
    25    15    16 ar  
    26    15    20 ar  
    27    16    17 ar  
    28    16    29 1   
    29    17    18 ar  
    30    17    30 1   
    31    18    19 ar  
    32    18    31 1   
    33    19    20 ar  
    34    19    32 1   
    35    20    33 1   
@<TRIPOS>SUBSTRUCTURE
     1 43G         1 TEMP              0 ****  ****    0 ROOT
