@<TRIPOS>MOLECULE
43I
   64    67     1     0     0
SMALL
abcg2


@<TRIPOS>ATOM
      1 C1         120.7120   133.3140   109.3120 c3         1 43I      -0.085100
      2 C10        121.7510   128.7390   111.8330 c6         1 43I       0.167300
      3 C11        120.7440   129.8690   112.0060 c6         1 43I      -0.090900
      4 C12        123.6310   127.5860   112.8230 c3         1 43I       0.214100
      5 C13        122.9430   126.2640   113.0670 ca         1 43I      -0.085300
      6 C14        122.1550   126.0760   114.2030 ca         1 43I      -0.090000
      7 C15        121.5360   124.8590   114.4540 ca         1 43I      -0.105500
      8 C16        121.7140   123.8150   113.5530 ca         1 43I       0.125000
      9 C17        122.4900   123.9720   112.4150 ca         1 43I      -0.105500
     10 C18        123.0980   125.2020   112.1810 ca         1 43I      -0.090000
     11 C19        118.9910   136.0200   113.4810 ca         1 43I       0.680900
     12 C2         120.5070   134.2190   110.5220 c3         1 43I      -0.070400
     13 C20        116.9970   137.2050   113.3030 ca         1 43I       0.685900
     14 C21        117.6820   138.4270   113.5280 ca         1 43I       0.090500
     15 C22        119.6310   137.2550   113.8440 ca         1 43I       0.282000
     16 C23        117.0200   139.7460   113.5130 c          1 43I       0.540600
     17 C3         121.1090   133.6450   111.8120 c6         1 43I       0.175500
     18 C4         121.0090   134.6460   112.9670 c6         1 43I       0.212800
     19 C5         118.7850   133.6110   113.3170 c6         1 43I       0.221800
     20 C6         119.6720   132.3830   113.3490 c6         1 43I       0.170800
     21 C7         121.4560   131.2180   112.0850 c6         1 43I       0.197500
     22 C8         122.5110   131.1630   113.2010 c6         1 43I      -0.090900
     23 C9         123.4580   129.9870   112.9860 c6         1 43I       0.167300
     24 N1         119.6110   134.8230   113.3780 nh         1 43I      -0.774300
     25 N2         120.5160   132.3400   112.1600 n3         1 43I      -0.755600
     26 N3         122.7250   128.7240   112.9240 n3         1 43I      -0.724600
     27 N4         117.6740   136.0490   113.2740 nb         1 43I      -0.841000
     28 N5         118.9870   138.3770   113.8300 nb         1 43I      -0.581000
     29 N6         117.8130   140.8050   113.7640 nt         1 43I      -0.584000
     30 N7         115.6630   137.1440   113.1270 nv         1 43I      -1.059900
     31 O1         115.8070   139.8730   113.2770 o          1 43I      -0.665100
     32 CL1        120.9380   122.2720   113.8610 cl         1 43I      -0.215000
     33 CL2        121.2670   137.3180   114.4990 cl         1 43I      -0.186000
     34 H1         120.2650   133.7500   108.4160 hc         1 43I       0.034700
     35 H2         121.7760   133.1580   109.1150 hc         1 43I       0.034700
     36 H3         120.2550   132.3370   109.4770 hc         1 43I       0.034700
     37 H4         121.2350   127.7780   111.8160 h1         1 43I       0.034450
     38 H5         122.2650   128.8480   110.8610 h1         1 43I       0.034450
     39 H6         120.0430   129.8710   111.1680 hc         1 43I       0.052200
     40 H7         120.1690   129.6880   112.9180 hc         1 43I       0.052200
     41 H8         124.1360   127.5550   111.8440 h1         1 43I       0.039700
     42 H9         124.4130   127.7230   113.5760 h1         1 43I       0.039700
     43 H10        122.0160   126.8970   114.8940 ha         1 43I       0.123000
     44 H11        120.9260   124.7190   115.3350 ha         1 43I       0.130000
     45 H12        122.6140   123.1530   111.7200 ha         1 43I       0.130000
     46 H13        123.6980   125.3320   111.2890 ha         1 43I       0.123000
     47 H14        120.9700   135.1940   110.3340 hc         1 43I       0.045200
     48 H15        119.4390   134.4010   110.6700 hc         1 43I       0.045200
     49 H16        122.1810   133.5060   111.6410 h1         1 43I       0.048700
     50 H17        121.6120   134.3030   113.8100 h1         1 43I       0.064200
     51 H18        121.4110   135.5950   112.6320 h1         1 43I       0.064200
     52 H19        118.1050   133.6060   114.1700 h1         1 43I       0.064200
     53 H20        118.1740   133.6060   112.4100 h1         1 43I       0.064200
     54 H21        119.0270   131.5050   113.3670 h1         1 43I       0.044700
     55 H22        120.2430   132.3780   114.2900 h1         1 43I       0.044700
     56 H23        121.9920   131.3480   111.1400 h1         1 43I       0.053700
     57 H24        123.0890   132.0900   113.2260 hc         1 43I       0.052200
     58 H25        122.0220   131.0520   114.1710 hc         1 43I       0.052200
     59 H26        124.1770   129.9260   113.8060 h1         1 43I       0.034450
     60 H27        124.0360   130.1500   112.0580 h1         1 43I       0.034450
     61 H30        117.4120   141.7280   113.7920 hn         1 43I       0.328000
     62 H31        118.7880   140.6720   113.9780 hn         1 43I       0.328000
     63 H32        115.2500   136.2700   112.8460 hn         1 43I       0.519000
     64 H33        115.1620   138.0160   113.0310 hn         1 43I       0.519000
@<TRIPOS>BOND
     1     1    12 1   
     2     1    34 1   
     3     1    35 1   
     4     1    36 1   
     5     2     3 1   
     6     2    26 1   
     7     2    37 1   
     8     2    38 1   
     9     3    21 1   
    10     3    39 1   
    11     3    40 1   
    12     4     5 1   
    13     4    26 1   
    14     4    41 1   
    15     4    42 1   
    16     5     6 ar  
    17     5    10 ar  
    18     6     7 ar  
    19     6    43 1   
    20     7     8 ar  
    21     7    44 1   
    22     8     9 ar  
    23     8    32 1   
    24     9    10 ar  
    25     9    45 1   
    26    10    46 1   
    27    11    15 ar  
    28    11    24 1   
    29    11    27 ar  
    30    12    17 1   
    31    12    47 1   
    32    12    48 1   
    33    13    14 ar  
    34    13    27 ar  
    35    13    30 1   
    36    14    16 1   
    37    14    28 ar  
    38    15    28 ar  
    39    15    33 1   
    40    16    29 1   
    41    16    31 2   
    42    17    18 1   
    43    17    25 1   
    44    17    49 1   
    45    18    24 1   
    46    18    50 1   
    47    18    51 1   
    48    19    20 1   
    49    19    24 1   
    50    19    52 1   
    51    19    53 1   
    52    20    25 1   
    53    20    54 1   
    54    20    55 1   
    55    21    22 1   
    56    21    25 1   
    57    21    56 1   
    58    22    23 1   
    59    22    57 1   
    60    22    58 1   
    61    23    26 1   
    62    23    59 1   
    63    23    60 1   
    64    29    61 1   
    65    29    62 1   
    66    30    63 1   
    67    30    64 1   
@<TRIPOS>SUBSTRUCTURE
     1 43I         1 TEMP              0 ****  ****    0 ROOT
