@<TRIPOS>MOLECULE
43I
   64    67     1     0     0
SMALL
No Charge or Current Charge


@<TRIPOS>ATOM
      1 C1         120.5960   133.2060   108.9860 c3         1 43I      -0.085100
      2 C10        121.7730   128.6070   111.9270 c6         1 43I       0.167300
      3 C11        120.7140   129.7310   111.9830 c6         1 43I      -0.090900
      4 C12        123.7300   127.6110   113.0770 c3         1 43I       0.214100
      5 C13        123.0740   126.2510   113.3020 ca         1 43I      -0.085300
      6 C14        122.4290   125.9720   114.5230 ca         1 43I      -0.090000
      7 C15        121.8200   124.7220   114.7350 ca         1 43I      -0.105500
      8 C16        121.8540   123.7470   113.7260 ca         1 43I       0.125000
      9 C17        122.4950   124.0170   112.5060 ca         1 43I      -0.105500
     10 C18        123.1040   125.2670   112.2930 ca         1 43I      -0.090000
     11 C19        118.9580   136.1300   113.4410 ca         1 43I       0.680900
     12 C2         120.3870   134.1190   110.2140 c3         1 43I      -0.070400
     13 C20        117.1410   137.4580   113.2110 ca         1 43I       0.685900
     14 C21        117.8060   138.5630   113.8320 ca         1 43I       0.090500
     15 C22        119.6600   137.2130   114.0990 ca         1 43I       0.282000
     16 C23        117.0990   139.9020   113.9700 c          1 43I       0.540600
     17 C3         121.0030   133.5780   111.5410 c6         1 43I       0.175500
     18 C4         120.8940   134.6500   112.6890 c6         1 43I       0.212800
     19 C5         118.6180   133.6240   113.1070 c6         1 43I       0.221800
     20 C6         119.4520   132.3060   113.0690 c6         1 43I       0.170800
     21 C7         121.3960   131.1200   111.9420 c6         1 43I       0.197500
     22 C8         122.4260   131.2200   113.1000 c6         1 43I      -0.090900
     23 C9         123.4410   130.0570   113.0170 c6         1 43I       0.167300
     24 N1         119.4940   134.8400   113.1990 nh         1 43I      -0.774300
     25 N2         120.4050   132.2430   111.9050 n3         1 43I      -0.755600
     26 N3         122.7610   128.7330   113.0370 n3         1 43I      -0.724600
     27 N4         117.6830   136.2620   113.0030 nb         1 43I      -0.841000
     28 N5         119.0940   138.4370   114.2970 nb         1 43I      -0.581000
     29 N6         117.7560   140.8800   114.6360 nt         1 43I      -0.584000
     30 N7         115.8910   137.4210   112.7350 nv         1 43I      -1.059900
     31 O1         115.9940   140.1490   113.5070 o          1 43I      -0.665100
     32 Cl1        121.0910   122.1840   113.9900 cl         1 43I      -0.215000
     33 Cl2        121.2910   137.0570   114.7640 cl         1 43I      -0.186000
     34 H1         120.1820   133.6770   108.0860 hc         1 43I       0.034700
     35 H2         121.6640   133.0220   108.8170 hc         1 43I       0.034700
     36 H3         120.0960   132.2410   109.1250 hc         1 43I       0.034700
     37 H4         121.2510   127.6410   111.9810 h1         1 43I       0.034450
     38 H5         122.2860   128.6440   110.9540 h1         1 43I       0.034450
     39 H6         120.0210   129.6280   111.1390 hc         1 43I       0.052200
     40 H7         120.1230   129.6140   112.9000 hc         1 43I       0.052200
     41 H8         124.3110   127.5840   112.1450 h1         1 43I       0.039700
     42 H9         124.4490   127.7730   113.8920 h1         1 43I       0.039700
     43 H10        122.3970   126.7290   115.3050 ha         1 43I       0.123000
     44 H11        121.3220   124.5110   115.6780 ha         1 43I       0.130000
     45 H12        122.5180   123.2600   111.7260 ha         1 43I       0.130000
     46 H13        123.5960   125.4700   111.3440 ha         1 43I       0.123000
     47 H14        120.8260   135.0980   109.9830 hc         1 43I       0.045200
     48 H15        119.3120   134.2910   110.3370 hc         1 43I       0.045200
     49 H16        122.0770   133.4590   111.3320 h1         1 43I       0.048700
     50 H17        121.5450   134.3380   113.5190 h1         1 43I       0.064200
     51 H18        121.2990   135.5990   112.3090 h1         1 43I       0.064200
     52 H19        117.9420   133.5790   113.9730 h1         1 43I       0.064200
     53 H20        117.9910   133.6670   112.2040 h1         1 43I       0.064200
     54 H21        118.7540   131.4580   113.0360 h1         1 43I       0.044700
     55 H22        119.9940   132.2360   114.0220 h1         1 43I       0.044700
     56 H23        121.9690   131.1520   111.0030 h1         1 43I       0.053700
     57 H24        122.9670   132.1730   113.0600 hc         1 43I       0.052200
     58 H25        121.9230   131.1810   114.0740 hc         1 43I       0.052200
     59 H26        124.1370   130.1400   113.8640 h1         1 43I       0.034450
     60 H27        124.0360   130.1650   112.0980 h1         1 43I       0.034450
     61 H30        117.3280   141.7870   114.7460 hn         1 43I       0.328000
     62 H31        118.6740   140.6880   115.0110 hn         1 43I       0.328000
     63 H32        115.7330   136.6950   112.0500 hn         1 43I       0.519000
     64 H33        115.4480   138.3240   112.5780 hn         1 43I       0.519000
@<TRIPOS>BOND
     1     1    12 1   
     2     1    34 1   
     3     1    35 1   
     4     1    36 1   
     5     2     3 1   
     6     2    26 1   
     7     2    37 1   
     8     2    38 1   
     9     3    21 1   
    10     3    39 1   
    11     3    40 1   
    12     4     5 1   
    13     4    26 1   
    14     4    41 1   
    15     4    42 1   
    16     5     6 ar  
    17     5    10 ar  
    18     6     7 ar  
    19     6    43 1   
    20     7     8 ar  
    21     7    44 1   
    22     8     9 ar  
    23     8    32 1   
    24     9    10 ar  
    25     9    45 1   
    26    10    46 1   
    27    11    15 ar  
    28    11    24 1   
    29    11    27 ar  
    30    12    17 1   
    31    12    47 1   
    32    12    48 1   
    33    13    14 ar  
    34    13    27 ar  
    35    13    30 1   
    36    14    16 1   
    37    14    28 ar  
    38    15    28 ar  
    39    15    33 1   
    40    16    29 1   
    41    16    31 2   
    42    17    18 1   
    43    17    25 1   
    44    17    49 1   
    45    18    24 1   
    46    18    50 1   
    47    18    51 1   
    48    19    20 1   
    49    19    24 1   
    50    19    52 1   
    51    19    53 1   
    52    20    25 1   
    53    20    54 1   
    54    20    55 1   
    55    21    22 1   
    56    21    25 1   
    57    21    56 1   
    58    22    23 1   
    59    22    57 1   
    60    22    58 1   
    61    23    26 1   
    62    23    59 1   
    63    23    60 1   
    64    29    61 1   
    65    29    62 1   
    66    30    63 1   
    67    30    64 1   
@<TRIPOS>SUBSTRUCTURE
     1 43I         1 TEMP              0 ****  ****    0 ROOT
