@<TRIPOS>MOLECULE
43J
   35    37     1     0     0
SMALL
bcc


@<TRIPOS>ATOM
      1 C12          0.2410     2.1760    -0.5730 ca         1 43J      -0.104000
      2 C13         -3.3370    -0.0790     0.0720 cp         1 43J      -0.039000
      3 C18         -4.5060     0.2030    -0.6360 ca         1 43J      -0.115500
      4 C14         -3.3580    -1.1160     1.0070 ca         1 43J      -0.115500
      5 C15         -4.5140    -1.8500     1.2250 ca         1 43J      -0.128000
      6 C16         -5.6710    -1.5610     0.5140 ca         1 43J      -0.122000
      7 C11         -0.9950     2.8000    -0.6240 ca         1 43J      -0.133000
      8 C9          -2.1050     0.7020    -0.1600 cp         1 43J      -0.035000
      9 C1           4.0140    -1.1360    -0.5660 cc         1 43J      -0.026100
     10 C6           0.3110     0.8080    -0.3200 ca         1 43J      -0.140900
     11 C4           1.6060     0.0910    -0.3450 cc         1 43J       0.523500
     12 N            1.7200    -0.9060    -1.1570 nd         1 43J      -0.601300
     13 C            2.9170    -1.5380    -1.2500 cd         1 43J       0.007600
     14 C2           3.9070    -0.0260     0.3580 c          1 43J       0.695700
     15 N3           2.6320     0.5150     0.4550 n          1 43J      -0.377300
     16 O            4.8350     0.3980     1.0270 o          1 43J      -0.592500
     17 C7           2.4480     1.5190     1.5020 c3         1 43J       0.076300
     18 C8          -0.8570     0.0800    -0.1280 ca         1 43J      -0.074000
     19 C10         -2.1570     2.0730    -0.4140 ca         1 43J      -0.102000
     20 C17         -5.6630    -0.5320    -0.4180 ca         1 43J      -0.128000
     21 H1           1.1420     2.7510    -0.7450 ha         1 43J       0.139000
     22 H2          -4.5100     0.9890    -1.3810 ha         1 43J       0.132000
     23 H3          -2.4690    -1.3410     1.5840 ha         1 43J       0.132000
     24 H4          -4.5110    -2.6460     1.9580 ha         1 43J       0.132000
     25 H5          -6.5730    -2.1350     0.6850 ha         1 43J       0.132000
     26 H6          -1.0540     3.8610    -0.8220 ha         1 43J       0.137000
     27 H7           2.9620    -2.3830    -1.9300 h4         1 43J       0.161000
     28 H8           5.2350    -2.4300    -1.2420 ho         1 43J       0.425000
     29 H9           2.9820     1.2050     2.3930 h1         1 43J       0.059033
     30 H10          2.8260     2.4890     1.1870 h1         1 43J       0.059033
     31 H11          1.3960     1.6080     1.7450 h1         1 43J       0.059033
     32 H12         -0.7900    -0.9870     0.0390 ha         1 43J       0.149000
     33 H13         -3.1120     2.5830    -0.4340 ha         1 43J       0.137000
     34 H14         -6.5570    -0.3030    -0.9840 ha         1 43J       0.132000
     35 O5           5.2360    -1.6810    -0.6350 oh         1 43J      -0.455100
@<TRIPOS>BOND
     1     1     7 ar  
     2     1    10 ar  
     3     1    21 1   
     4     2     3 ar  
     5     2     4 ar  
     6     2     8 1   
     7     3    20 ar  
     8     3    22 1   
     9     4     5 ar  
    10     4    23 1   
    11     5     6 ar  
    12     5    24 1   
    13     6    20 ar  
    14     6    25 1   
    15     7    19 ar  
    16     7    26 1   
    17     8    18 ar  
    18     8    19 ar  
    19     9    13 2   
    20     9    14 1   
    21     9    35 1   
    22    10    11 1   
    23    10    18 ar  
    24    11    12 2   
    25    11    15 1   
    26    12    13 1   
    27    13    27 1   
    28    14    15 1   
    29    14    16 2   
    30    15    17 1   
    31    17    29 1   
    32    17    30 1   
    33    17    31 1   
    34    18    32 1   
    35    19    33 1   
    36    20    34 1   
    37    28    35 1   
@<TRIPOS>SUBSTRUCTURE
     1 43J         1 TEMP              0 ****  ****    0 ROOT
