@<TRIPOS>MOLECULE
43J
   35    37     1     0     0
SMALL
No Charge or Current Charge


@<TRIPOS>ATOM
      1 C12          0.2780     2.1700    -0.5910 ca         1 43J      -0.086000
      2 C13         -3.3620    -0.0900     0.0770 cp         1 43J      -0.039000
      3 C18         -4.5610     0.2360    -0.6080 ca         1 43J      -0.097500
      4 C14         -3.3950    -1.1820     0.9820 ca         1 43J      -0.097500
      5 C15         -4.5750    -1.9160     1.1930 ca         1 43J      -0.110000
      6 C16         -5.7490    -1.5750     0.5040 ca         1 43J      -0.104000
      7 C11         -0.9670     2.8170    -0.6110 ca         1 43J      -0.115000
      8 C9          -2.1050     0.6920    -0.1490 cp         1 43J      -0.035000
      9 C1           4.0510    -1.1470    -0.5480 cc         1 43J      -0.026100
     10 C6           0.3600     0.7850    -0.3260 ca         1 43J      -0.140900
     11 C4           1.6540     0.0830    -0.3450 cc         1 43J       0.523500
     12 N            1.7410    -0.9740    -1.1620 nd         1 43J      -0.601300
     13 C            2.9740    -1.6220    -1.2700 cd         1 43J      -0.042400
     14 C2           3.9560     0.0010     0.3920 c          1 43J       0.553200
     15 N3           2.6790     0.5560     0.4760 n          1 43J      -0.310300
     16 O            4.9020     0.4280     1.0500 o          1 43J      -0.517000
     17 C7           2.4520     1.6100     1.5030 c3         1 43J       0.076300
     18 C8          -0.8360     0.0590    -0.1340 ca         1 43J      -0.056000
     19 C10         -2.1450     2.0880    -0.3870 ca         1 43J      -0.084000
     20 C17         -5.7410    -0.4980    -0.3970 ca         1 43J      -0.110000
     21 H1           1.1800     2.7450    -0.7930 ha         1 43J       0.121000
     22 H2          -4.5740     1.0570    -1.3200 ha         1 43J       0.114000
     23 H3          -2.5010    -1.4550     1.5370 ha         1 43J       0.114000
     24 H4          -4.5790    -2.7480     1.8950 ha         1 43J       0.114000
     25 H5          -6.6620    -2.1430     0.6670 ha         1 43J       0.114000
     26 H6          -1.0190     3.8860    -0.8050 ha         1 43J       0.119000
     27 H7           3.0350    -2.4750    -1.9440 h4         1 43J       0.211000
     28 H8           5.2350    -2.4650    -1.2740 ho         1 43J       0.464000
     29 H9           3.0780     1.4320     2.3860 h1         1 43J       0.059033
     30 H10          2.6990     2.5940     1.0860 h1         1 43J       0.059033
     31 H11          1.4080     1.6100     1.8420 h1         1 43J       0.059033
     32 H12         -0.7800    -1.0160     0.0270 ha         1 43J       0.131000
     33 H13         -3.0970     2.6120    -0.3940 ha         1 43J       0.119000
     34 H14         -6.6490    -0.2330    -0.9350 ha         1 43J       0.114000
     35 O5           5.2840    -1.7200    -0.6350 oh         1 43J      -0.494100
@<TRIPOS>BOND
     1     1     7 ar  
     2     1    10 ar  
     3     1    21 1   
     4     2     3 ar  
     5     2     4 ar  
     6     2     8 1   
     7     3    20 ar  
     8     3    22 1   
     9     4     5 ar  
    10     4    23 1   
    11     5     6 ar  
    12     5    24 1   
    13     6    20 ar  
    14     6    25 1   
    15     7    19 ar  
    16     7    26 1   
    17     8    18 ar  
    18     8    19 ar  
    19     9    13 2   
    20     9    14 1   
    21     9    35 1   
    22    10    11 1   
    23    10    18 ar  
    24    11    12 2   
    25    11    15 1   
    26    12    13 1   
    27    13    27 1   
    28    14    15 1   
    29    14    16 2   
    30    15    17 1   
    31    17    29 1   
    32    17    30 1   
    33    17    31 1   
    34    18    32 1   
    35    19    33 1   
    36    20    34 1   
    37    28    35 1   
@<TRIPOS>SUBSTRUCTURE
     1 43J         1 TEMP              0 ****  ****    0 ROOT
