@<TRIPOS>MOLECULE
43L
   36    39     1     0     0
SMALL
No Charge or Current Charge


@<TRIPOS>ATOM
      1 CAJ         -2.8010     0.0900    -0.0980 ca         1 43L      -0.054000
      2 CAQ         -3.8850     0.9380    -0.3800 ca         1 43L      -0.018900
      3 BrB         -4.2320     2.4440     0.7470 br         1 43L      -0.086100
      4 CAF         -4.7140     0.6850    -1.4850 ca         1 43L      -0.070000
      5 CAD         -4.4560    -0.4200    -2.3120 ca         1 43L      -0.110000
      6 CAH         -3.3720    -1.2720    -2.0340 ca         1 43L      -0.080000
      7 CAS         -2.5390    -1.0250    -0.9230 ca         1 43L      -0.100300
      8 CAV         -1.3520    -1.9560    -0.6350 c6         1 43L       0.157600
      9 CAK         -0.0040    -1.2850    -1.0400 c6         1 43L      -0.106400
     10 NAW         -1.2810    -2.3700     0.7850 na         1 43L      -0.135700
     11 NAN         -2.3180    -2.7440     1.5790 nc         1 43L      -0.194800
     12 NAL         -1.7560    -3.0550     2.7240 nd         1 43L      -0.029000
     13 NAM         -0.3820    -2.9150     2.6850 nd         1 43L      -0.439000
     14 CAT         -0.1230    -2.4870     1.4800 cc         1 43L       0.633400
     15 NAO          1.1000    -2.2460     0.9360 nu         1 43L      -0.906100
     16 CAU          1.2350    -2.0650    -0.5140 c6         1 43L       0.272800
     17 CAR          2.5530    -1.3580    -0.8400 ca         1 43L      -0.110300
     18 CAI          2.8630    -0.1080    -0.2610 ca         1 43L      -0.060000
     19 CAP          4.0730     0.5350    -0.5710 ca         1 43L      -0.021900
     20 BrA          4.4810     2.2270     0.2220 br         1 43L      -0.086100
     21 CAE          4.9830    -0.0590    -1.4600 ca         1 43L      -0.072000
     22 CAC          4.6810    -1.3030    -2.0400 ca         1 43L      -0.109000
     23 CAG          3.4720    -1.9500    -1.7310 ca         1 43L      -0.089000
     24 HAJ1        -2.1660     0.3000     0.7590 ha         1 43L       0.137000
     25 HAF1        -5.5530     1.3440    -1.7010 ha         1 43L       0.133000
     26 HAD1        -5.0950    -0.6180    -3.1700 ha         1 43L       0.122000
     27 HAH1        -3.1810    -2.1230    -2.6830 ha         1 43L       0.116000
     28 HAV1        -1.4690    -2.8750    -1.2280 h1         1 43L       0.072700
     29 HAK1         0.0510    -1.1920    -2.1320 hc         1 43L       0.077700
     30 HAK2         0.0230    -0.2610    -0.6440 hc         1 43L       0.077700
     31 HAO1         1.8770    -2.6160     1.4800 hn         1 43L       0.511000
     32 HAU1         1.2410    -3.0550    -0.9960 h1         1 43L       0.047700
     33 HAI1         2.1680     0.3600     0.4340 ha         1 43L       0.145000
     34 HAE1         5.9190     0.4410    -1.7000 ha         1 43L       0.134000
     35 HAC1         5.3850    -1.7660    -2.7280 ha         1 43L       0.123000
     36 HAG1         3.2490    -2.9130    -2.1870 ha         1 43L       0.117000
@<TRIPOS>BOND
     1     1     2 ar  
     2     1     7 ar  
     3     1    24 1   
     4     2     3 1   
     5     2     4 ar  
     6     4     5 ar  
     7     4    25 1   
     8     5     6 ar  
     9     5    26 1   
    10     6     7 ar  
    11     6    27 1   
    12     7     8 1   
    13     8     9 1   
    14     8    10 1   
    15     8    28 1   
    16     9    16 1   
    17     9    29 1   
    18     9    30 1   
    19    10    11 1   
    20    10    14 1   
    21    11    12 2   
    22    12    13 1   
    23    13    14 2   
    24    14    15 1   
    25    15    16 1   
    26    15    31 1   
    27    16    17 1   
    28    16    32 1   
    29    17    18 ar  
    30    17    23 ar  
    31    18    19 ar  
    32    18    33 1   
    33    19    20 1   
    34    19    21 ar  
    35    21    22 ar  
    36    21    34 1   
    37    22    23 ar  
    38    22    35 1   
    39    23    36 1   
@<TRIPOS>SUBSTRUCTURE
     1 43L         1 TEMP              0 ****  ****    0 ROOT
