@<TRIPOS>MOLECULE
43L
   36    39     1     0     0
SMALL
bcc


@<TRIPOS>ATOM
      1 CAJ         -2.6990     0.0840    -0.1720 ca         1 43L      -0.072000
      2 CAQ         -3.7550     0.9180    -0.4950 ca         1 43L      -0.018900
      3 BRB         -4.0570     2.4670     0.5410 br         1 43L      -0.086100
      4 CAF         -4.5980     0.6410    -1.5640 ca         1 43L      -0.088000
      5 CAD         -4.3660    -0.5010    -2.3140 ca         1 43L      -0.128000
      6 CAH         -3.3150    -1.3520    -1.9990 ca         1 43L      -0.098000
      7 CAS         -2.4780    -1.0620    -0.9310 ca         1 43L      -0.100300
      8 CAV         -1.3100    -1.9660    -0.6310 c6         1 43L       0.128300
      9 CAK          0.0270    -1.3080    -0.9840 c6         1 43L      -0.106400
     10 NAW         -1.2490    -2.3130     0.7770 na         1 43L      -0.106400
     11 NAN         -2.2960    -2.6430     1.5430 nc         1 43L      -0.194800
     12 NAL         -1.8240    -2.9390     2.6810 nd         1 43L      -0.029000
     13 NAM         -0.4900    -2.8320     2.7190 nd         1 43L      -0.439000
     14 CAT         -0.1400    -2.4410     1.5120 cc         1 43L       0.633400
     15 NAO          1.0870    -2.1650     1.0260 nu         1 43L      -0.850900
     16 CAU          1.2280    -2.0740    -0.4200 c6         1 43L       0.272800
     17 CAR          2.5090    -1.3650    -0.7790 ca         1 43L      -0.110300
     18 CAI          2.9230    -0.2480    -0.0590 ca         1 43L      -0.078000
     19 CAP          4.0810     0.4120    -0.4370 ca         1 43L      -0.021900
     20 BRA          4.6420     1.9240     0.5480 br         1 43L      -0.086100
     21 CAE          4.8390    -0.0100    -1.5200 ca         1 43L      -0.090000
     22 CAC          4.4150    -1.1230    -2.2320 ca         1 43L      -0.127000
     23 CAG          3.2610    -1.7990    -1.8640 ca         1 43L      -0.107000
     24 HAJ1        -2.0510     0.3200     0.6640 ha         1 43L       0.155000
     25 HAF1        -5.4210     1.2960    -1.8120 ha         1 43L       0.151000
     26 HAD1        -5.0170    -0.7310    -3.1470 ha         1 43L       0.140000
     27 HAH1        -3.1510    -2.2460    -2.5870 ha         1 43L       0.134000
     28 HAV1        -1.4180    -2.8910    -1.2030 h1         1 43L       0.072700
     29 HAK1         0.1100    -1.2630    -2.0690 hc         1 43L       0.077700
     30 HAK2         0.0490    -0.2810    -0.6130 hc         1 43L       0.077700
     31 HAO1         1.8580    -2.5650     1.5400 hn         1 43L       0.455800
     32 HAU1         1.2480    -3.0750    -0.8670 h1         1 43L       0.047700
     33 HAI1         2.3450     0.0920     0.7910 ha         1 43L       0.163000
     34 HAE1         5.7430     0.5080    -1.8080 ha         1 43L       0.152000
     35 HAC1         4.9990    -1.4690    -3.0750 ha         1 43L       0.141000
     36 HAG1         2.9450    -2.6720    -2.4220 ha         1 43L       0.135000
@<TRIPOS>BOND
     1     1     2 ar  
     2     1     7 ar  
     3     1    24 1   
     4     2     3 1   
     5     2     4 ar  
     6     4     5 ar  
     7     4    25 1   
     8     5     6 ar  
     9     5    26 1   
    10     6     7 ar  
    11     6    27 1   
    12     7     8 1   
    13     8     9 1   
    14     8    10 1   
    15     8    28 1   
    16     9    16 1   
    17     9    29 1   
    18     9    30 1   
    19    10    11 1   
    20    10    14 1   
    21    11    12 2   
    22    12    13 1   
    23    13    14 2   
    24    14    15 1   
    25    15    16 1   
    26    15    31 1   
    27    16    17 1   
    28    16    32 1   
    29    17    18 ar  
    30    17    23 ar  
    31    18    19 ar  
    32    18    33 1   
    33    19    20 1   
    34    19    21 ar  
    35    21    22 ar  
    36    21    34 1   
    37    22    23 ar  
    38    22    35 1   
    39    23    36 1   
@<TRIPOS>SUBSTRUCTURE
     1 43L         1 TEMP              0 ****  ****    0 ROOT
