@<TRIPOS>MOLECULE
43M
   16    16     1     0     0
SMALL
No Charge or Current Charge


@<TRIPOS>ATOM
      1 C1           0.7610    -0.4820     1.9630 ca         1 43M      -0.063000
      2 C2           1.8140    -1.0730     2.6830 ca         1 43M       0.079000
      3 C3           2.9020    -1.6610     1.9970 ca         1 43M      -0.021300
      4 C7           4.0540    -2.3070     2.7590 c3         1 43M      -0.049800
      5 C4           2.9160    -1.6460     0.5860 ca         1 43M      -0.204000
      6 C5           1.8620    -1.0540    -0.1270 ca         1 43M       0.146100
      7 C6           0.7860    -0.4730     0.5580 ca         1 43M      -0.143000
      8 Cl1          1.7470    -1.0650     4.4460 cl         1 43M      -0.210000
      9 O1           1.8800    -1.0420    -1.4890 oh         1 43M      -0.530100
     10 H1          -0.0730    -0.0320     2.4960 ha         1 43M       0.130000
     11 H71          4.5520    -1.5800     3.4100 hc         1 43M       0.050367
     12 H72          3.6970    -3.1330     3.3850 hc         1 43M       0.050367
     13 H73          4.8140    -2.7150     2.0810 hc         1 43M       0.050367
     14 H4           3.7490    -2.0950     0.0500 ha         1 43M       0.115000
     15 H6          -0.0290    -0.0150     0.0020 ha         1 43M       0.133000
     16 HO1          2.7000    -1.4880    -1.7920 ho         1 43M       0.467000
@<TRIPOS>BOND
     1     1     2 ar  
     2     1     7 ar  
     3     1    10 1   
     4     2     3 ar  
     5     2     8 1   
     6     3     4 1   
     7     3     5 ar  
     8     4    11 1   
     9     4    12 1   
    10     4    13 1   
    11     5     6 ar  
    12     5    14 1   
    13     6     7 ar  
    14     6     9 1   
    15     7    15 1   
    16     9    16 1   
@<TRIPOS>SUBSTRUCTURE
     1 43M         1 TEMP              0 ****  ****    0 ROOT
