@<TRIPOS>MOLECULE
43M
   16    16     1     0     0
SMALL
abcg2


@<TRIPOS>ATOM
      1 C1           0.7860    -0.4960     1.9470 ca         1 43M      -0.063000
      2 C2           1.8260    -1.0770     2.6550 ca         1 43M       0.079000
      3 C3           2.9090    -1.6640     2.0060 ca         1 43M      -0.021300
      4 C7           4.0370    -2.2990     2.7590 c3         1 43M      -0.049800
      5 C4           2.9120    -1.6450     0.6140 ca         1 43M      -0.204000
      6 C5           1.8760    -1.0650    -0.1120 ca         1 43M       0.146100
      7 C6           0.8050    -0.4860     0.5640 ca         1 43M      -0.143000
      8 CL1          1.7650    -1.0690     4.3930 cl         1 43M      -0.210000
      9 O1           1.8620    -1.0380    -1.4580 oh         1 43M      -0.530100
     10 H1          -0.0450    -0.0460     2.4740 ha         1 43M       0.130000
     11 H71          4.5350    -1.5810     3.4120 hc         1 43M       0.050367
     12 H72          3.6840    -3.1160     3.3900 hc         1 43M       0.050367
     13 H73          4.7820    -2.7020     2.0750 hc         1 43M       0.050367
     14 H4           3.7470    -2.0980     0.0900 ha         1 43M       0.115000
     15 H6          -0.0080    -0.0320     0.0120 ha         1 43M       0.133000
     16 HO1          2.6590    -1.4470    -1.8130 ho         1 43M       0.467000
@<TRIPOS>BOND
     1     1     2 ar  
     2     1     7 ar  
     3     1    10 1   
     4     2     3 ar  
     5     2     8 1   
     6     3     4 1   
     7     3     5 ar  
     8     4    11 1   
     9     4    12 1   
    10     4    13 1   
    11     5     6 ar  
    12     5    14 1   
    13     6     7 ar  
    14     6     9 1   
    15     7    15 1   
    16     9    16 1   
@<TRIPOS>SUBSTRUCTURE
     1 43M         1 TEMP              0 ****  ****    0 ROOT
