@<TRIPOS>MOLECULE
43N
   74    78     1     0     0
SMALL
bcc


@<TRIPOS>ATOM
      1 C1           1.8520     1.8250    -6.1530 c3         1 43N      -0.100100
      2 C2           1.4420     0.9810    -4.9600 c3         1 43N       0.220800
      3 C7           0.5010     0.1960    -0.0180 ca         1 43N      -0.211000
      4 C8           1.1650     1.4080    -0.1310 ca         1 43N       0.124100
      5 C9           1.5470     1.9630    -1.3440 ca         1 43N      -0.175600
      6 C10          2.2640     3.3050    -1.4250 c          1 43N       0.935200
      7 C14          2.4220     1.5660     1.8490 ca         1 43N       0.185100
      8 C15          2.5560     2.1690     3.0990 ca         1 43N      -0.168000
      9 C16          3.5140     1.7050     3.9840 ca         1 43N      -0.099000
     10 C19          3.2510     0.5060     1.4920 ca         1 43N      -0.197000
     11 C21         -0.3810    -1.9110    -1.0950 c3         1 43N       0.280100
     12 C22          0.7810    -2.8730    -0.9130 ca         1 43N      -0.070300
     13 C24          2.3110    -4.4890    -1.8570 ca         1 43N      -0.133500
     14 C27          1.4760    -2.9500     0.2940 ca         1 43N      -0.112500
     15 C30         -2.7700    -3.5060     1.3350 c6         1 43N      -0.072400
     16 C31         -3.9320    -2.5230     1.2700 c6         1 43N      -0.092400
     17 C32         -3.3670    -1.1350     1.0050 c6         1 43N       0.120700
     18 C33         -2.4770    -1.1160    -0.2350 c6         1 43N       0.145800
     19 C35         -4.3370     0.8910     1.9710 cc         1 43N       0.054600
     20 C25          3.0010    -4.5540    -0.6560 ca         1 43N      -0.134000
     21 C26          2.5770    -3.7810     0.4200 ca         1 43N      -0.133500
     22 C23          1.2070    -3.6520    -1.9810 ca         1 43N      -0.112500
     23 C17          4.3450     0.6410     3.6550 ca         1 43N      -0.185000
     24 C5           0.5560     0.0070    -2.4050 ca         1 43N      -0.236000
     25 C6           0.2080    -0.5150    -1.1700 ca         1 43N      -0.064300
     26 C4           1.2240     1.2350    -2.5200 ca         1 43N       0.210600
     27 C18          4.1930     0.0620     2.4070 ca         1 43N       0.064400
     28 C36         -5.2180     1.8990     2.0970 cd         1 43N      -0.274400
     29 C37         -6.2970     1.9760     1.1360 c          1 43N       0.732700
     30 C40         -5.3790    -0.0530     0.0490 c          1 43N       0.826500
     31 C29         -1.8670    -3.3920     0.1170 c6         1 43N       0.158800
     32 C42         -5.1360     2.9280     3.1770 c3         1 43N      -0.015900
     33 N39         -6.2770     0.9760     0.1830 ns         1 43N      -0.602500
     34 N34         -4.3840    -0.0720     0.9960 n          1 43N      -0.367000
     35 N28         -1.3630    -2.0310    -0.0290 n3         1 43N      -0.711600
     36 N3           1.5360     1.7550    -3.7460 nu         1 43N      -0.761600
     37 O11          3.2000     3.3750    -2.2570 o          1 43N      -0.812300
     38 O12          1.8650     4.2170    -0.6900 o          1 43N      -0.812300
     39 CL           5.2080    -1.2730     1.9620 cl         1 43N      -0.144400
     40 H1           1.7740     1.2460    -7.0720 hc         1 43N       0.035700
     41 H2           1.2120     2.7030    -6.2500 hc         1 43N       0.035700
     42 H3           2.8850     2.1660    -6.0640 hc         1 43N       0.035700
     43 H4           0.4130     0.6410    -5.1010 h1         1 43N       0.018700
     44 H5           2.0640     0.0760    -4.9170 h1         1 43N       0.018700
     45 H6           0.2220    -0.1860     0.9560 ha         1 43N       0.133000
     46 H7           1.9110     2.9950     3.3690 ha         1 43N       0.149000
     47 H8           3.6120     2.1740     4.9540 ha         1 43N       0.121000
     48 H9           3.1660     0.0240     0.5280 ha         1 43N       0.171000
     49 H10         -0.8350    -2.1350    -2.0760 h1         1 43N       0.029700
     50 H11          2.6270    -5.0900    -2.7000 ha         1 43N       0.125000
     51 H12          1.1530    -2.3610     1.1430 ha         1 43N       0.135000
     52 H13         -2.1740    -3.3220     2.2330 hc         1 43N       0.044700
     53 H14         -3.1490    -4.5270     1.4080 hc         1 43N       0.044700
     54 H15         -4.6160    -2.8130     0.4710 hc         1 43N       0.053200
     55 H16         -4.4960    -2.5270     2.2050 hc         1 43N       0.053200
     56 H17         -2.7160    -0.8850     1.8450 h1         1 43N       0.068700
     57 H18         -3.0500    -1.3850    -1.1330 h1         1 43N       0.066200
     58 H19         -2.0990    -0.1030    -0.3780 h1         1 43N       0.066200
     59 H20         -3.5140     0.7880     2.6660 h4         1 43N       0.160000
     60 H21          3.8630    -5.2010    -0.5580 ha         1 43N       0.121000
     61 H22          3.1130    -3.8230     1.3600 ha         1 43N       0.125000
     62 H23          0.6720    -3.6070    -2.9220 ha         1 43N       0.135000
     63 H24          5.0850     0.2760     4.3530 ha         1 43N       0.132000
     64 H25          0.3160    -0.5610    -3.2950 ha         1 43N       0.113000
     65 H26         -1.0300    -4.0790     0.2330 h1         1 43N       0.038200
     66 H27         -2.4160    -3.7110    -0.7860 h1         1 43N       0.038200
     67 H28         -5.0520     3.9330     2.7620 hc         1 43N       0.044700
     68 H29         -6.0260     2.9130     3.8070 hc         1 43N       0.044700
     69 H30         -4.2710     2.7570     3.8160 hc         1 43N       0.044700
     70 H31         -7.0140     0.9950    -0.5120 hn         1 43N       0.337500
     71 H33          2.2970     2.4240    -3.7010 hn         1 43N       0.476800
     72 O38         -7.1680     2.8280     1.1260 o          1 43N      -0.618500
     73 O13          1.4700     2.0740     1.0360 os         1 43N      -0.211200
     74 O41         -5.4800    -0.8680    -0.8470 o          1 43N      -0.640500
@<TRIPOS>BOND
     1     1     2 1   
     2     1    40 1   
     3     1    41 1   
     4     1    42 1   
     5     2    36 1   
     6     2    43 1   
     7     2    44 1   
     8     3     4 ar  
     9     3    25 ar  
    10     3    45 1   
    11     4     5 ar  
    12     4    73 1   
    13     5     6 1   
    14     5    26 ar  
    15     6    37 1   
    16     6    38 1   
    17     7     8 ar  
    18     7    10 ar  
    19     7    73 1   
    20     8     9 ar  
    21     8    46 1   
    22     9    23 ar  
    23     9    47 1   
    24    10    27 ar  
    25    10    48 1   
    26    11    12 1   
    27    11    25 1   
    28    11    35 1   
    29    11    49 1   
    30    12    14 ar  
    31    12    22 ar  
    32    13    20 ar  
    33    13    22 ar  
    34    13    50 1   
    35    14    21 ar  
    36    14    51 1   
    37    15    16 1   
    38    15    31 1   
    39    15    52 1   
    40    15    53 1   
    41    16    17 1   
    42    16    54 1   
    43    16    55 1   
    44    17    18 1   
    45    17    34 1   
    46    17    56 1   
    47    18    35 1   
    48    18    57 1   
    49    18    58 1   
    50    19    28 2   
    51    19    34 1   
    52    19    59 1   
    53    20    21 ar  
    54    20    60 1   
    55    21    61 1   
    56    22    62 1   
    57    23    27 ar  
    58    23    63 1   
    59    24    25 ar  
    60    24    26 ar  
    61    24    64 1   
    62    26    36 1   
    63    27    39 1   
    64    28    29 1   
    65    28    32 1   
    66    29    33 1   
    67    29    72 2   
    68    30    33 1   
    69    30    34 1   
    70    30    74 2   
    71    31    35 1   
    72    31    65 1   
    73    31    66 1   
    74    32    67 1   
    75    32    68 1   
    76    32    69 1   
    77    33    70 1   
    78    36    71 1   
@<TRIPOS>SUBSTRUCTURE
     1 43N         1 TEMP              0 ****  ****    0 ROOT
