@<TRIPOS>MOLECULE
43N
   74    78     1     0     0
SMALL
No Charge or Current Charge


@<TRIPOS>ATOM
      1 C1           1.3200     2.0760    -6.3800 c3         1 43N      -0.100100
      2 C2           1.0200     1.1320    -5.2060 c3         1 43N       0.220800
      3 C7           0.9260     0.1810    -0.0780 ca         1 43N      -0.193000
      4 C8           1.5130     1.4460    -0.2530 ca         1 43N       0.124100
      5 C9           1.5880     2.0230    -1.5380 ca         1 43N      -0.175600
      6 C10          2.1620     3.3980    -1.7190 c          1 43N       0.724600
      7 C14          2.7140     1.4800     1.8480 ca         1 43N       0.185100
      8 C15          2.5840     1.9560     3.1640 ca         1 43N      -0.150000
      9 C16          3.2760     1.3290     4.2150 ca         1 43N      -0.081000
     10 C19          3.5580     0.3840     1.5790 ca         1 43N      -0.179000
     11 C21         -0.1490    -1.9530    -0.9920 c3         1 43N       0.280100
     12 C22          1.0020    -2.9490    -0.7970 ca         1 43N      -0.070300
     13 C24          2.5260    -4.6190    -1.7280 ca         1 43N      -0.115500
     14 C27          1.6330    -3.0990     0.4580 ca         1 43N      -0.094500
     15 C30         -2.7400    -3.4780     1.4350 c6         1 43N      -0.072400
     16 C31         -3.8840    -2.4450     1.3100 c6         1 43N      -0.092400
     17 C32         -3.2920    -1.0340     1.0750 c6         1 43N       0.120700
     18 C33         -2.2770    -1.0100    -0.1040 c6         1 43N       0.145800
     19 C35         -4.4040     0.9810     2.0540 cc         1 43N       0.004600
     20 C25          3.1460    -4.7610    -0.4760 ca         1 43N      -0.116000
     21 C26          2.7000    -4.0010     0.6170 ca         1 43N      -0.115500
     22 C23          1.4600    -3.7160    -1.8880 ca         1 43N      -0.094500
     23 C17          4.1040     0.2250     3.9460 ca         1 43N      -0.167000
     24 C5           0.5430     0.0200    -2.4590 ca         1 43N      -0.218000
     25 C6           0.4430    -0.5480    -1.1770 ca         1 43N      -0.064300
     26 C4           1.1130     1.2940    -2.6460 ca         1 43N       0.349000
     27 C18          4.2430    -0.2430     2.6290 ca         1 43N       0.156000
     28 C36         -5.3440     1.9890     2.0290 cd         1 43N      -0.274400
     29 C37         -6.2950     2.0890     0.8980 c          1 43N       0.590200
     30 C40         -5.2280     0.1130    -0.0730 c          1 43N       0.617000
     31 C29         -1.7670    -3.3950     0.2310 c6         1 43N       0.158800
     32 C42         -5.4750     3.0340     3.1150 c3         1 43N      -0.015900
     33 N39         -6.1310     1.1260    -0.0430 ns         1 43N      -0.468500
     34 N34         -4.3280     0.0420     1.0190 n          1 43N      -0.300000
     35 N28         -1.1890    -2.0250     0.0770 n3         1 43N      -0.711600
     36 N3           1.2180     1.8290    -3.9320 nu         1 43N      -0.955200
     37 O11          2.9810     3.5710    -2.6130 o          1 43N      -0.707000
     38 O12          1.7210     4.3100    -1.0340 o          1 43N      -0.707000
     39 Cl           5.2820    -1.6210     2.2940 cl         1 43N      -0.236000
     40 H1           1.1700     1.5530    -7.3320 hc         1 43N       0.035700
     41 H2           0.6530     2.9470    -6.3610 hc         1 43N       0.035700
     42 H3           2.3570     2.4290    -6.3430 hc         1 43N       0.035700
     43 H4          -0.0160     0.7760    -5.2840 h1         1 43N       0.018700
     44 H5           1.6880     0.2620    -5.2630 h1         1 43N       0.018700
     45 H6           0.8480    -0.2440     0.9190 ha         1 43N       0.115000
     46 H7           1.9410     2.8080     3.3680 ha         1 43N       0.131000
     47 H8           3.1690     1.6960     5.2340 ha         1 43N       0.103000
     48 H9           3.6810     0.0180     0.5650 ha         1 43N       0.153000
     49 H10         -0.6420    -2.2170    -1.9380 h1         1 43N       0.029700
     50 H11          2.8720    -5.2060    -2.5760 ha         1 43N       0.107000
     51 H12          1.2930    -2.5180     1.3110 ha         1 43N       0.117000
     52 H13         -2.1820    -3.3050     2.3650 hc         1 43N       0.044700
     53 H14         -3.1570    -4.4920     1.5050 hc         1 43N       0.044700
     54 H15         -4.5430    -2.7300     0.4800 hc         1 43N       0.053200
     55 H16         -4.4980    -2.4510     2.2210 hc         1 43N       0.053200
     56 H17         -2.6760    -0.8310     1.9630 h1         1 43N       0.068700
     57 H18         -2.8010    -1.1940    -1.0520 h1         1 43N       0.066200
     58 H19         -1.8610     0.0060    -0.1630 h1         1 43N       0.066200
     59 H20         -3.6710     0.8310     2.8410 h4         1 43N       0.210000
     60 H21          3.9720    -5.4580    -0.3530 ha         1 43N       0.103000
     61 H22          3.1800    -4.1080     1.5870 ha         1 43N       0.107000
     62 H23          0.9910    -3.6100    -2.8640 ha         1 43N       0.117000
     63 H24          4.6390    -0.2650     4.7550 ha         1 43N       0.114000
     64 H25          0.1790    -0.5440    -3.3120 ha         1 43N       0.095000
     65 H26         -0.9750    -4.1400     0.3860 h1         1 43N       0.038200
     66 H27         -2.3040    -3.6850    -0.6850 h1         1 43N       0.038200
     67 H28         -5.3270     4.0440     2.7130 hc         1 43N       0.044700
     68 H29         -6.4680     2.9990     3.5800 hc         1 43N       0.044700
     69 H30         -4.7340     2.8840     3.9100 hc         1 43N       0.044700
     70 H31         -6.7650     1.1660    -0.8250 hn         1 43N       0.337500
     71 H33          1.8420     2.6450    -3.9560 hn         1 43N       0.532000
     72 O38         -7.1600     2.9440     0.7880 o          1 43N      -0.543000
     73 O13          2.0230     2.1150     0.8390 os         1 43N      -0.211200
     74 O41         -5.2280    -0.6700    -1.0070 o          1 43N      -0.565000
@<TRIPOS>BOND
     1     1     2 1   
     2     1    40 1   
     3     1    41 1   
     4     1    42 1   
     5     2    36 1   
     6     2    43 1   
     7     2    44 1   
     8     3     4 ar  
     9     3    25 ar  
    10     3    45 1   
    11     4     5 ar  
    12     4    73 1   
    13     5     6 1   
    14     5    26 ar  
    15     6    37 1   
    16     6    38 1   
    17     7     8 ar  
    18     7    10 ar  
    19     7    73 1   
    20     8     9 ar  
    21     8    46 1   
    22     9    23 ar  
    23     9    47 1   
    24    10    27 ar  
    25    10    48 1   
    26    11    12 1   
    27    11    25 1   
    28    11    35 1   
    29    11    49 1   
    30    12    14 ar  
    31    12    22 ar  
    32    13    20 ar  
    33    13    22 ar  
    34    13    50 1   
    35    14    21 ar  
    36    14    51 1   
    37    15    16 1   
    38    15    31 1   
    39    15    52 1   
    40    15    53 1   
    41    16    17 1   
    42    16    54 1   
    43    16    55 1   
    44    17    18 1   
    45    17    34 1   
    46    17    56 1   
    47    18    35 1   
    48    18    57 1   
    49    18    58 1   
    50    19    28 2   
    51    19    34 1   
    52    19    59 1   
    53    20    21 ar  
    54    20    60 1   
    55    21    61 1   
    56    22    62 1   
    57    23    27 ar  
    58    23    63 1   
    59    24    25 ar  
    60    24    26 ar  
    61    24    64 1   
    62    26    36 1   
    63    27    39 1   
    64    28    29 1   
    65    28    32 1   
    66    29    33 1   
    67    29    72 2   
    68    30    33 1   
    69    30    34 1   
    70    30    74 2   
    71    31    35 1   
    72    31    65 1   
    73    31    66 1   
    74    32    67 1   
    75    32    68 1   
    76    32    69 1   
    77    33    70 1   
    78    36    71 1   
@<TRIPOS>SUBSTRUCTURE
     1 43N         1 TEMP              0 ****  ****    0 ROOT
