@<TRIPOS>MOLECULE
43O
   37    38     1     0     0
SMALL
bcc


@<TRIPOS>ATOM
      1 CAN         -1.2590     3.6860     0.2390 c3         1 43O      -0.042900
      2 CAH         -1.7900     2.2990     0.1780 cc         1 43O      -0.035300
      3 NAG         -3.0570     2.0560    -0.2780 na         1 43O      -0.172400
      4 CAC         -3.3060     0.7100    -0.2590 ca         1 43O      -0.075200
      5 CAD         -4.4340    -0.0160    -0.6170 ca         1 43O      -0.104000
      6 CAE         -4.3890    -1.3930    -0.4860 ca         1 43O      -0.195000
      7 CAF         -3.2390    -2.0400    -0.0020 ca         1 43O       0.109100
      8 OAM         -3.1920    -3.3910     0.1310 oh         1 43O      -0.500100
      9 CAA         -2.1140    -1.3160     0.3540 ca         1 43O      -0.124000
     10 CAB         -2.1440     0.0770     0.2260 ca         1 43O      -0.053800
     11 CAI         -1.1880     1.1070     0.5010 cd         1 43O      -0.154400
     12 CAJ          0.2020     0.8940     0.9980 c3         1 43O      -0.013200
     13 CAK          1.1370     0.4380    -0.1180 c3         1 43O       0.105000
     14 NAL          2.4610     0.1730     0.4060 ns         1 43O      -0.586900
     15 CAO          3.4970    -0.1680    -0.3730 c          1 43O       0.664100
     16 OAP          3.4170    -0.2760    -1.5850 o          1 43O      -0.569100
     17 CAQ          4.7940    -0.3950     0.3880 c3         1 43O       0.050400
     18 OAR          5.7660    -0.8540    -0.4970 os         1 43O      -0.366600
     19 CAS          6.9970    -1.0810     0.1420 c3         1 43O       0.117700
     20 H1          -2.0000     4.3780     0.6410 hc         1 43O       0.051033
     21 H2          -0.3750     3.7390     0.8720 hc         1 43O       0.051033
     22 H3          -0.9760     4.0480    -0.7520 hc         1 43O       0.051033
     23 H4          -3.7130     2.7680    -0.5530 hn         1 43O       0.298700
     24 H5          -5.3270     0.4690    -0.9900 ha         1 43O       0.132000
     25 H6          -5.2580    -1.9800    -0.7630 ha         1 43O       0.129000
     26 H7          -4.0210    -3.7810    -0.1660 ho         1 43O       0.421000
     27 H8          -1.2310    -1.8240     0.7250 ha         1 43O       0.148000
     28 H9           0.5960     1.8110     1.4450 hc         1 43O       0.043200
     29 H10          0.1980     0.1420     1.7950 hc         1 43O       0.043200
     30 H11          0.7330    -0.4610    -0.5940 h1         1 43O       0.057200
     31 H12          1.1890     1.2100    -0.8890 h1         1 43O       0.057200
     32 H13          2.5910     0.2090     1.4050 hn         1 43O       0.307500
     33 H14          5.0910     0.5510     0.8660 h1         1 43O       0.032200
     34 H15          4.6150    -1.1100     1.2040 h1         1 43O       0.032200
     35 H16          7.4080    -0.1640     0.5820 h1         1 43O       0.030700
     36 H17          6.9140    -1.8280     0.9400 h1         1 43O       0.030700
     37 H18          7.6980    -1.4490    -0.6060 h1         1 43O       0.030700
@<TRIPOS>BOND
     1     1     2 1   
     2     1    20 1   
     3     1    21 1   
     4     1    22 1   
     5     2     3 1   
     6     2    11 2   
     7     3     4 1   
     8     3    23 1   
     9     4     5 ar  
    10     4    10 ar  
    11     5     6 ar  
    12     5    24 1   
    13     6     7 ar  
    14     6    25 1   
    15     7     8 1   
    16     7     9 ar  
    17     8    26 1   
    18     9    10 ar  
    19     9    27 1   
    20    10    11 1   
    21    11    12 1   
    22    12    13 1   
    23    12    28 1   
    24    12    29 1   
    25    13    14 1   
    26    13    30 1   
    27    13    31 1   
    28    14    15 1   
    29    14    32 1   
    30    15    16 2   
    31    15    17 1   
    32    17    18 1   
    33    17    33 1   
    34    17    34 1   
    35    18    19 1   
    36    19    35 1   
    37    19    36 1   
    38    19    37 1   
@<TRIPOS>SUBSTRUCTURE
     1 43O         1 TEMP              0 ****  ****    0 ROOT
