@<TRIPOS>MOLECULE
43O
   37    38     1     0     0
SMALL
No Charge or Current Charge


@<TRIPOS>ATOM
      1 CAN         -1.1910     3.7120     0.2810 c3         1 43O      -0.042900
      2 CAH         -1.8000     2.3400     0.1880 cc         1 43O      -0.035300
      3 NAG         -3.1110     2.0710    -0.2540 na         1 43O      -0.222700
      4 CAC         -3.3510     0.7090    -0.2250 ca         1 43O      -0.075200
      5 CAD         -4.5110     0.0080    -0.5810 ca         1 43O      -0.086000
      6 CAE         -4.4920    -1.3990    -0.4580 ca         1 43O      -0.177000
      7 CAF         -3.3320    -2.0630     0.0090 ca         1 43O       0.109100
      8 OAM         -3.3250    -3.4220     0.1230 oh         1 43O      -0.539100
      9 CAA         -2.1800    -1.3280     0.3580 ca         1 43O      -0.106000
     10 CAB         -2.2340     0.0660     0.2250 ca         1 43O      -0.053800
     11 CAI         -1.2530     1.0950     0.4880 cd         1 43O      -0.154400
     12 CAJ          0.1440     0.8440     0.9990 c3         1 43O      -0.013200
     13 CAK          1.1000     0.4040    -0.1250 c3         1 43O       0.105000
     14 NAL          2.4570     0.1550     0.3710 ns         1 43O      -0.519900
     15 CAO          3.5200    -0.2140    -0.4280 c          1 43O       0.597100
     16 OAP          3.3900    -0.3610    -1.6390 o          1 43O      -0.569100
     17 CAQ          4.8580    -0.4200     0.3310 c3         1 43O       0.073600
     18 OAR          5.9490    -0.8060    -0.5390 os         1 43O      -0.413000
     19 CAS          7.2050    -1.0050     0.1300 c3         1 43O       0.140900
     20 H1          -1.8470     4.4710    -0.1610 hc         1 43O       0.051033
     21 H2          -1.0120     3.9870     1.3270 hc         1 43O       0.051033
     22 H3          -0.2310     3.7470    -0.2470 hc         1 43O       0.051033
     23 H4          -3.7800     2.7730    -0.5510 hn         1 43O       0.349000
     24 H5          -5.3960     0.5290    -0.9390 ha         1 43O       0.114000
     25 H6          -5.3790    -1.9680    -0.7270 ha         1 43O       0.111000
     26 H7          -4.2000    -3.7620    -0.1610 ho         1 43O       0.460000
     27 H8          -1.2850    -1.8270     0.7180 ha         1 43O       0.130000
     28 H9           0.5430     1.7480     1.4760 hc         1 43O       0.043200
     29 H10          0.1210     0.0700     1.7750 hc         1 43O       0.043200
     30 H11          0.7180    -0.5140    -0.5910 h1         1 43O       0.057200
     31 H12          1.1400     1.1870    -0.8940 h1         1 43O       0.057200
     32 H13          2.6400     0.2560     1.3630 hn         1 43O       0.307500
     33 H14          5.0920     0.5200     0.8480 h1         1 43O       0.032200
     34 H15          4.6880    -1.1880     1.0970 h1         1 43O       0.032200
     35 H16          7.5310    -0.0840     0.6320 h1         1 43O       0.030700
     36 H17          7.1240    -1.8010     0.8830 h1         1 43O       0.030700
     37 H18          7.9800    -1.2940    -0.5910 h1         1 43O       0.030700
@<TRIPOS>BOND
     1     1     2 1   
     2     1    20 1   
     3     1    21 1   
     4     1    22 1   
     5     2     3 1   
     6     2    11 2   
     7     3     4 1   
     8     3    23 1   
     9     4     5 ar  
    10     4    10 ar  
    11     5     6 ar  
    12     5    24 1   
    13     6     7 ar  
    14     6    25 1   
    15     7     8 1   
    16     7     9 ar  
    17     8    26 1   
    18     9    10 ar  
    19     9    27 1   
    20    10    11 1   
    21    11    12 1   
    22    12    13 1   
    23    12    28 1   
    24    12    29 1   
    25    13    14 1   
    26    13    30 1   
    27    13    31 1   
    28    14    15 1   
    29    14    32 1   
    30    15    16 2   
    31    15    17 1   
    32    17    18 1   
    33    17    33 1   
    34    17    34 1   
    35    18    19 1   
    36    19    35 1   
    37    19    36 1   
    38    19    37 1   
@<TRIPOS>SUBSTRUCTURE
     1 43O         1 TEMP              0 ****  ****    0 ROOT
