@<TRIPOS>MOLECULE
43P
   34    36     1     0     0
SMALL
abcg2


@<TRIPOS>ATOM
      1 OAQ         -3.3610     0.4310     0.8330 oh         1 43P      -0.550100
      2 CAF         -2.1220     0.0940     1.2210 ca         1 43P       0.219100
      3 CAJ         -1.8860     0.0100     2.5880 ca         1 43P      -0.211000
      4 CAL         -0.6360    -0.3450     3.0760 ca         1 43P       0.194100
      5 OAR         -0.5010    -0.3830     4.4180 oh         1 43P      -0.537100
      6 CAM          0.4110    -0.6510     2.1980 ca         1 43P      -0.225300
      7 CAS          1.7940    -1.0000     2.6820 c3         1 43P      -0.019100
      8 CAT          2.6390     0.2410     2.9700 c3         1 43P      -0.094100
      9 CAG          0.1530    -0.5510     0.8410 ca         1 43P       0.006000
     10 CAC         -1.0780    -0.1680     0.3110 ca         1 43P      -0.260500
     11 CAB         -1.2860    -0.0440    -1.1340 cc         1 43P       0.378500
     12 NAE         -2.5250     0.0220    -1.6090 nd         1 43P      -0.595800
     13 NAI         -2.4170     0.1190    -2.9250 na         1 43P       0.011800
     14 CAK         -1.1440     0.1190    -3.3320 cd         1 43P      -0.153000
     15 CAA         -0.3550     0.0210    -2.2050 cc         1 43P      -0.214500
     16 CAD          1.1050     0.0330    -2.1890 cc         1 43P       0.323500
     17 CAP          1.9540    -0.8460    -2.8070 cd         1 43P      -0.221000
     18 NAN          3.2090    -0.4060    -2.5120 na         1 43P      -0.302500
     19 CAO          3.0860     0.6930    -1.7420 cd         1 43P       0.385400
     20 NAH          1.8310     0.9910    -1.5280 nc         1 43P      -0.654000
     21 HAQ         -3.4210     0.3610    -0.1440 ho         1 43P       0.508000
     22 HAJ         -2.6940     0.2200     3.2800 ha         1 43P       0.141000
     23 HAR          0.3690    -0.7100     4.6700 ho         1 43P       0.467000
     24 HAS1         2.2910    -1.6040     1.9200 hc         1 43P       0.037200
     25 HAS2         1.7630    -1.6420     3.5680 hc         1 43P       0.037200
     26 HAT1         3.6400    -0.0330     3.3040 hc         1 43P       0.036367
     27 HAT2         2.7380     0.8510     2.0710 hc         1 43P       0.036367
     28 HAT3         2.1900     0.8640     3.7450 hc         1 43P       0.036367
     29 HAG          0.9620    -0.7850     0.1630 ha         1 43P       0.118000
     30 HAI         -3.2440     0.1850    -3.4960 hn         1 43P       0.377000
     31 HAK         -0.8740     0.2020    -4.3720 h4         1 43P       0.156000
     32 HAP          1.7700    -1.7240    -3.4020 h4         1 43P       0.159000
     33 HAN          4.0730    -0.8340    -2.8040 hn         1 43P       0.353000
     34 HAO          3.9400     1.2370    -1.3710 h5         1 43P       0.056100
@<TRIPOS>BOND
     1     1     2 1   
     2     1    21 1   
     3     2     3 ar  
     4     2    10 ar  
     5     3     4 ar  
     6     3    22 1   
     7     4     5 1   
     8     4     6 ar  
     9     5    23 1   
    10     6     7 1   
    11     6     9 ar  
    12     7     8 1   
    13     7    24 1   
    14     7    25 1   
    15     8    26 1   
    16     8    27 1   
    17     8    28 1   
    18     9    10 ar  
    19     9    29 1   
    20    10    11 1   
    21    11    12 2   
    22    11    15 1   
    23    12    13 1   
    24    13    14 1   
    25    13    30 1   
    26    14    15 2   
    27    14    31 1   
    28    15    16 1   
    29    16    17 2   
    30    16    20 1   
    31    17    18 1   
    32    17    32 1   
    33    18    19 1   
    34    18    33 1   
    35    19    20 2   
    36    19    34 1   
@<TRIPOS>SUBSTRUCTURE
     1 43P         1 TEMP              0 ****  ****    0 ROOT
