@<TRIPOS>MOLECULE
43P
   34    36     1     0     0
SMALL
No Charge or Current Charge


@<TRIPOS>ATOM
      1 OAQ         -3.1960     0.9630     0.6780 oh         1 43P      -0.550100
      2 CAF         -2.0360     0.4770     1.1920 ca         1 43P       0.219100
      3 CAJ         -1.8330     0.5520     2.5730 ca         1 43P      -0.211000
      4 CAL         -0.6660     0.0390     3.1440 ca         1 43P       0.194100
      5 OAR         -0.4980     0.1320     4.4920 oh         1 43P      -0.537100
      6 CAM          0.3010    -0.5850     2.3320 ca         1 43P      -0.225300
      7 CAS          1.5730    -1.2080     2.9110 c3         1 43P      -0.019100
      8 CAT          2.7060    -0.1770     3.0660 c3         1 43P      -0.094100
      9 CAG          0.0900    -0.6440     0.9390 ca         1 43P       0.006000
     10 CAC         -1.0520    -0.0710     0.3380 ca         1 43P      -0.260500
     11 CAB         -1.2720    -0.1790    -1.1190 cc         1 43P       0.378500
     12 NAE         -2.5020    -0.3870    -1.5680 nd         1 43P      -0.595800
     13 NAI         -2.3300    -0.6420    -2.9270 na         1 43P       0.011800
     14 CAK         -0.9900    -0.5880    -3.3080 cd         1 43P      -0.153000
     15 CAA         -0.3130    -0.2620    -2.1670 cc         1 43P      -0.214500
     16 CAD          1.1000     0.0330    -2.1700 cc         1 43P       0.323500
     17 CAP          1.8830    -0.1540    -3.2780 cd         1 43P      -0.221000
     18 NAN          3.1420     0.2880    -2.8970 na         1 43P      -0.302500
     19 CAO          3.0490     0.7360    -1.5930 cd         1 43P       0.385400
     20 NAH          1.8080     0.5950    -1.1500 nc         1 43P      -0.654000
     21 HAQ         -3.2190     0.6170    -0.2510 ho         1 43P       0.508000
     22 HAJ         -2.5890     1.0050     3.2070 ha         1 43P       0.141000
     23 HAR          0.3750    -0.2550     4.7080 ho         1 43P       0.467000
     24 HAS1         1.9270    -2.0170     2.2600 hc         1 43P       0.037200
     25 HAS2         1.3760    -1.6820     3.8810 hc         1 43P       0.037200
     26 HAT1         3.6050    -0.6550     3.4740 hc         1 43P       0.036367
     27 HAT2         2.9620     0.2620     2.0950 hc         1 43P       0.036367
     28 HAT3         2.4100     0.6330     3.7430 hc         1 43P       0.036367
     29 HAG          0.8110    -1.1800     0.3280 ha         1 43P       0.118000
     30 HAI         -3.1220    -0.8420    -3.5400 hn         1 43P       0.377000
     31 HAK         -0.6620    -0.7300    -4.3320 h4         1 43P       0.156000
     32 HAP          1.6520    -0.5510    -4.2600 h4         1 43P       0.159000
     33 HAN          3.9860     0.2970    -3.4590 hn         1 43P       0.353000
     34 HAO          3.8960     1.1460    -1.0530 h5         1 43P       0.056100
@<TRIPOS>BOND
     1     1     2 1   
     2     1    21 1   
     3     2     3 ar  
     4     2    10 ar  
     5     3     4 ar  
     6     3    22 1   
     7     4     5 1   
     8     4     6 ar  
     9     5    23 1   
    10     6     7 1   
    11     6     9 ar  
    12     7     8 1   
    13     7    24 1   
    14     7    25 1   
    15     8    26 1   
    16     8    27 1   
    17     8    28 1   
    18     9    10 ar  
    19     9    29 1   
    20    10    11 1   
    21    11    12 2   
    22    11    15 1   
    23    12    13 1   
    24    13    14 1   
    25    13    30 1   
    26    14    15 2   
    27    14    31 1   
    28    15    16 1   
    29    16    17 2   
    30    16    20 1   
    31    17    18 1   
    32    17    32 1   
    33    18    19 1   
    34    18    33 1   
    35    19    20 2   
    36    19    34 1   
@<TRIPOS>SUBSTRUCTURE
     1 43P         1 TEMP              0 ****  ****    0 ROOT
