@<TRIPOS>MOLECULE
43Q
   26    26     1     0     0
SMALL
No Charge or Current Charge


@<TRIPOS>ATOM
      1 O6          13.2250    24.3990   -15.6910 os         1 43Q      -0.632400
      2 P1          12.8020    22.8690   -15.3900 p5         1 43Q       1.491800
      3 O5          13.5930    22.2950   -14.2640 o          1 43Q      -0.850500
      4 O4          12.9770    22.0300   -16.6110 o          1 43Q      -0.850500
      5 O3          11.2660    22.9980   -15.0690 os         1 43Q      -0.733800
      6 P           10.7470    23.8010   -13.8180 p5         1 43Q       1.477800
      7 O8           9.2550    23.7460   -13.7740 o          1 43Q      -0.855500
      8 O7          11.3120    23.3130   -12.5260 o          1 43Q      -0.855500
      9 O2          11.2260    25.3020   -14.1500 os         1 43Q      -0.609400
     10 C4          10.6930    26.0470   -15.2590 c3         1 43Q       0.236600
     11 C3          11.1800    25.4830   -16.6400 c3         1 43Q       0.102300
     12 C1          12.7510    25.2770   -16.7480 c3         1 43Q       0.267000
     13 C           13.1760    24.7140   -18.1570 c3         1 43Q       0.130600
     14 O           12.3880    23.5970   -18.5960 oh         1 43Q      -0.645000
     15 C2          13.5200    26.6040   -16.5010 c3         1 43Q      -0.081100
     16 O1          10.7020    26.3600   -17.6930 oh         1 43Q      -0.702000
     17 H4          11.0010    27.0970   -15.1740 h1         1 43Q       0.022700
     18 H5           9.5960    26.0320   -15.2370 h1         1 43Q       0.022700
     19 H6          10.6970    24.5100   -16.7840 h1         1 43Q       0.089700
     20 H8          14.2350    24.4280   -18.1200 h1         1 43Q       0.013200
     21 H9          13.0940    25.5220   -18.8970 h1         1 43Q       0.013200
     22 H10         12.5750    22.8750   -17.9290 ho         1 43Q       0.411000
     23 H11         13.3400    26.9890   -15.4910 hc         1 43Q       0.030700
     24 H12         14.6000    26.4500   -16.6120 hc         1 43Q       0.030700
     25 H13         13.2170    27.3750   -17.2190 hc         1 43Q       0.030700
     26 H14         10.7970    25.8690   -18.5420 ho         1 43Q       0.443000
@<TRIPOS>BOND
     1     1     2 1   
     2     1    12 1   
     3     2     3 1   
     4     2     4 1   
     5     2     5 1   
     6     5     6 1   
     7     6     7 1   
     8     6     8 1   
     9     6     9 1   
    10     9    10 1   
    11    10    11 1   
    12    10    17 1   
    13    10    18 1   
    14    11    12 1   
    15    11    16 1   
    16    11    19 1   
    17    12    13 1   
    18    12    15 1   
    19    13    14 1   
    20    13    20 1   
    21    13    21 1   
    22    14    22 1   
    23    15    23 1   
    24    15    24 1   
    25    15    25 1   
    26    16    26 1   
@<TRIPOS>SUBSTRUCTURE
     1 43Q         1 TEMP              0 ****  ****    0 ROOT
