@<TRIPOS>MOLECULE
43Q
   26    26     1     0     0
SMALL
abcg2


@<TRIPOS>ATOM
      1 O6          13.2710    24.2050   -15.7080 os         1 43Q      -0.632400
      2 P1          12.7480    22.7500   -15.2320 p5         1 43Q       1.491800
      3 O5          13.7220    22.3170   -14.1870 o          1 43Q      -0.850500
      4 O4          12.4450    21.8460   -16.3790 o          1 43Q      -0.850500
      5 O3          11.2970    23.0720   -14.5500 os         1 43Q      -0.733800
      6 P           10.7470    24.1920   -13.5010 p5         1 43Q       1.477800
      7 O8           9.2600    24.0450   -13.5100 o          1 43Q      -0.855500
      8 O7          11.5050    24.1470   -12.2170 o          1 43Q      -0.855500
      9 O2          11.1810    25.5830   -14.2170 os         1 43Q      -0.609400
     10 C4          10.6390    25.9690   -15.4790 c3         1 43Q       0.236600
     11 C3          11.2310    25.2250   -16.6770 c3         1 43Q       0.102300
     12 C1          12.7770    25.1360   -16.7020 c3         1 43Q       0.267000
     13 C           13.2770    24.7360   -18.1020 c3         1 43Q       0.130600
     14 O           12.3280    23.9220   -18.8020 oh         1 43Q      -0.645000
     15 C2          13.4390    26.4630   -16.3430 c3         1 43Q      -0.081100
     16 O1          10.7540    25.9470   -17.8130 oh         1 43Q      -0.702000
     17 H4          10.8460    27.0330   -15.5880 h1         1 43Q       0.022700
     18 H5           9.5570    25.8260   -15.4830 h1         1 43Q       0.022700
     19 H6          10.8390    24.2080   -16.7050 h1         1 43Q       0.089700
     20 H8          14.2250    24.2060   -17.9780 h1         1 43Q       0.013200
     21 H9          13.4620    25.6450   -18.6790 h1         1 43Q       0.013200
     22 H10         12.6640    23.7710   -19.6930 ho         1 43Q       0.411000
     23 H11         13.2670    26.7000   -15.2950 hc         1 43Q       0.030700
     24 H12         14.5160    26.3970   -16.5120 hc         1 43Q       0.030700
     25 H13         13.0400    27.2650   -16.9630 hc         1 43Q       0.030700
     26 H14         10.9300    25.3770   -18.5780 ho         1 43Q       0.443000
@<TRIPOS>BOND
     1     1     2 1   
     2     1    12 1   
     3     2     3 1   
     4     2     4 1   
     5     2     5 1   
     6     5     6 1   
     7     6     7 1   
     8     6     8 1   
     9     6     9 1   
    10     9    10 1   
    11    10    11 1   
    12    10    17 1   
    13    10    18 1   
    14    11    12 1   
    15    11    16 1   
    16    11    19 1   
    17    12    13 1   
    18    12    15 1   
    19    13    14 1   
    20    13    20 1   
    21    13    21 1   
    22    14    22 1   
    23    15    23 1   
    24    15    24 1   
    25    15    25 1   
    26    16    26 1   
@<TRIPOS>SUBSTRUCTURE
     1 43Q         1 TEMP              0 ****  ****    0 ROOT
