@<TRIPOS>MOLECULE
43R
   37    39     1     0     0
SMALL
No Charge or Current Charge


@<TRIPOS>ATOM
      1 C12          0.7140     2.1940     0.0920 c6         1 43R       0.201800
      2 C13         -0.5660     2.2410    -0.7670 c6         1 43R      -0.107700
      3 C14          2.6960     0.6250     0.2380 ca         1 43R       0.280000
      4 C15          3.2840    -0.5570    -0.2500 ca         1 43R      -0.164000
      5 C16          4.6710    -0.7410    -0.1220 ca         1 43R       0.117100
      6 C1          -7.1340    -0.7130    -0.1110 c3         1 43R      -0.174100
      7 C5          -3.4670     0.1440    -0.0690 cc         1 43R       0.545300
      8 C2          -5.6640    -0.9520     0.2050 c          1 43R       0.606100
      9 O3          -5.2810    -1.9620     0.7730 o          1 43R      -0.569100
     10 N4          -4.8270     0.0540    -0.2010 ns         1 43R      -0.475400
     11 N6          -2.8910     1.2310    -0.5510 nd         1 43R      -0.703000
     12 C7          -1.5230     1.1650    -0.3380 cd         1 43R       0.325300
     13 C8          -1.0830     0.0340     0.2990 cc         1 43R      -0.294300
     14 S9          -2.4000    -1.0340     0.6750 ss         1 43R       0.063600
     15 C10          0.3600    -0.2250     0.6220 c6         1 43R       0.291100
     16 N11          1.2900     0.8200     0.1120 nh         1 43R      -0.788400
     17 C17          5.4410     0.2770     0.5000 ca         1 43R       0.223900
     18 N18          4.9020     1.4240     0.9770 nb         1 43R      -0.621000
     19 C19          3.5590     1.5850     0.8430 ca         1 43R       0.244900
     20 O20          5.2220    -1.9100    -0.6140 os         1 43R      -0.337100
     21 C21          6.6320    -2.1800    -0.5250 c3         1 43R       0.147900
     22 H1           1.4370     2.9120    -0.3230 h1         1 43R       0.044700
     23 H2           0.4780     2.5160     1.1180 h1         1 43R       0.044700
     24 H3          -1.0300     3.2320    -0.6830 hc         1 43R       0.068700
     25 H4          -0.3030     2.1020    -1.8230 hc         1 43R       0.068700
     26 H5           2.6810    -1.3170    -0.7360 ha         1 43R       0.136000
     27 H6          -7.2440    -0.5290    -1.1850 hc         1 43R       0.070367
     28 H7          -7.7750    -1.5350     0.2270 hc         1 43R       0.070367
     29 H8          -7.4420     0.2450     0.3240 hc         1 43R       0.070367
     30 H9          -5.2760     0.8320    -0.6590 hn         1 43R       0.340500
     31 H10          0.4740    -0.3070     1.7130 h1         1 43R       0.051700
     32 H11          0.6360    -1.2050     0.2070 h1         1 43R       0.051700
     33 H12          6.5190     0.1810     0.6230 h4         1 43R       0.022100
     34 H13          3.1590     2.5150     1.2450 h4         1 43R       0.019100
     35 H14          7.2100    -1.4170    -1.0620 h1         1 43R       0.043367
     36 H15          6.9610    -2.1990     0.5220 h1         1 43R       0.043367
     37 H16          6.8620    -3.1560    -0.9710 h1         1 43R       0.043367
@<TRIPOS>BOND
     1     1     2 1   
     2     1    16 1   
     3     1    22 1   
     4     1    23 1   
     5     2    12 1   
     6     2    24 1   
     7     2    25 1   
     8     3     4 ar  
     9     3    16 1   
    10     3    19 ar  
    11     4     5 ar  
    12     4    26 1   
    13     5    17 ar  
    14     5    20 1   
    15     6     8 1   
    16     6    27 1   
    17     6    28 1   
    18     6    29 1   
    19     7    10 1   
    20     7    11 2   
    21     7    14 1   
    22     8     9 2   
    23     8    10 1   
    24    10    30 1   
    25    11    12 1   
    26    12    13 2   
    27    13    14 1   
    28    13    15 1   
    29    15    16 1   
    30    15    31 1   
    31    15    32 1   
    32    17    18 ar  
    33    17    33 1   
    34    18    19 ar  
    35    19    34 1   
    36    20    21 1   
    37    21    35 1   
    38    21    36 1   
    39    21    37 1   
@<TRIPOS>SUBSTRUCTURE
     1 43R         1 TEMP              0 ****  ****    0 ROOT
