@<TRIPOS>MOLECULE
43R
   37    39     1     0     0
SMALL
bcc


@<TRIPOS>ATOM
      1 C12          0.7640     2.2290     0.1640 c6         1 43R       0.201800
      2 C13         -0.5410     2.4250    -0.5990 c6         1 43R      -0.107700
      3 C14          2.6200     0.6370     0.1430 ca         1 43R       0.076300
      4 C15          3.1680    -0.5920    -0.2200 ca         1 43R      -0.182000
      5 C16          4.5350    -0.8060    -0.1020 ca         1 43R       0.051800
      6 C1          -6.9280    -0.9300    -0.1130 c3         1 43R      -0.174100
      7 C5          -3.4050     0.2890    -0.1550 cc         1 43R       0.545300
      8 C2          -5.4460    -0.9980     0.1090 c          1 43R       0.673100
      9 O3          -4.8640    -1.9480     0.6000 o          1 43R      -0.569100
     10 N4          -4.7610     0.1170    -0.2780 ns         1 43R      -0.542400
     11 N6          -2.8230     1.3810    -0.5260 nd         1 43R      -0.703000
     12 C7          -1.4750     1.3090    -0.2910 cd         1 43R       0.390600
     13 C8          -1.0350     0.1510     0.2500 cc         1 43R      -0.214700
     14 S9          -2.3610    -0.9290     0.5070 ss         1 43R      -0.081300
     15 C10          0.3850    -0.1520     0.5850 c6         1 43R       0.291100
     16 N11          1.2540     0.8690     0.0090 nh         1 43R      -0.650000
     17 C17          5.3360     0.2320     0.3760 ca         1 43R       0.289200
     18 N18          4.8160     1.4010     0.7230 nb         1 43R      -0.621000
     19 C19          3.5150     1.6060     0.6250 ca         1 43R       0.310200
     20 O20          4.9920    -2.0120    -0.4780 os         1 43R      -0.313900
     21 C21          6.3830    -2.2630    -0.3880 c3         1 43R       0.124700
     22 H1           1.5020     2.9190    -0.2400 h1         1 43R       0.044700
     23 H2           0.6170     2.4900     1.2220 h1         1 43R       0.044700
     24 H3          -0.9820     3.3830    -0.3140 hc         1 43R       0.068700
     25 H4          -0.3450     2.4730    -1.6740 hc         1 43R       0.068700
     26 H5           2.5500    -1.3860    -0.6200 ha         1 43R       0.154000
     27 H6          -7.1560    -0.6930    -1.1520 hc         1 43R       0.070367
     28 H7          -7.3900    -1.8780     0.1470 hc         1 43R       0.070367
     29 H8          -7.3640    -0.1450     0.5060 hc         1 43R       0.070367
     30 H9          -5.2620     0.8970    -0.6810 hn         1 43R       0.340500
     31 H10          0.5130    -0.2110     1.6760 h1         1 43R       0.051700
     32 H11          0.6540    -1.1310     0.1880 h1         1 43R       0.051700
     33 H12          6.4070     0.1250     0.4910 h4         1 43R       0.022100
     34 H13          3.1650     2.5790     0.9470 h4         1 43R       0.019100
     35 H14          6.9630    -1.5790    -1.0120 h1         1 43R       0.043367
     36 H15          6.7430    -2.1930     0.6420 h1         1 43R       0.043367
     37 H16          6.5360    -3.2790    -0.7440 h1         1 43R       0.043367
@<TRIPOS>BOND
     1     1     2 1   
     2     1    16 1   
     3     1    22 1   
     4     1    23 1   
     5     2    12 1   
     6     2    24 1   
     7     2    25 1   
     8     3     4 ar  
     9     3    16 1   
    10     3    19 ar  
    11     4     5 ar  
    12     4    26 1   
    13     5    17 ar  
    14     5    20 1   
    15     6     8 1   
    16     6    27 1   
    17     6    28 1   
    18     6    29 1   
    19     7    10 1   
    20     7    11 2   
    21     7    14 1   
    22     8     9 2   
    23     8    10 1   
    24    10    30 1   
    25    11    12 1   
    26    12    13 2   
    27    13    14 1   
    28    13    15 1   
    29    15    16 1   
    30    15    31 1   
    31    15    32 1   
    32    17    18 ar  
    33    17    33 1   
    34    18    19 ar  
    35    19    34 1   
    36    20    21 1   
    37    21    35 1   
    38    21    36 1   
    39    21    37 1   
@<TRIPOS>SUBSTRUCTURE
     1 43R         1 TEMP              0 ****  ****    0 ROOT
