@<TRIPOS>MOLECULE
43S
   28    31     1     0     0
SMALL
bcc


@<TRIPOS>ATOM
      1 C4           1.5100    -0.0460     0.0080 cp         1 43S       0.627800
      2 C5           0.1230    -0.5400    -0.0040 cp         1 43S      -0.156500
      3 C6          -0.2160    -1.8980     0.0170 ca         1 43S       0.111100
      4 C11         -2.2740    -0.1060    -0.0460 ca         1 43S      -0.055900
      5 C7          -0.1530    -4.0730     0.0650 cc         1 43S      -0.024900
      6 C8          -1.4670    -3.7830     0.0410 cd         1 43S      -0.186200
      7 C9          -1.5410    -2.3510     0.0090 ca         1 43S      -0.137800
      8 C10         -2.5990    -1.4480    -0.0230 ca         1 43S      -0.029000
      9 C12         -0.9560     0.3460    -0.0360 ca         1 43S      -0.046000
     10 N1           4.2180     0.6810     0.0180 nb         1 43S      -0.783000
     11 N2           3.3470     2.9230     0.0490 na         1 43S      -0.374000
     12 C3           1.8650     1.3090     0.0290 ca         1 43S      -0.209200
     13 N3           1.1650     2.4950     0.0450 nc         1 43S      -0.550100
     14 BR          -3.6640     1.1750    -0.0900 br         1 43S      -0.095100
     15 O            0.6160    -2.9550     0.0510 os         1 43S      -0.135200
     16 N4           2.4770    -0.9520    -0.0030 nb         1 43S      -0.782000
     17 C            3.7630    -0.5730     0.0050 ca         1 43S       0.924900
     18 N            4.6790    -1.5680     0.0380 nv         1 43S      -0.941500
     19 C1           3.2440     1.5690     0.0310 ca         1 43S       0.473800
     20 C2           2.0780     3.4190     0.0570 cd         1 43S       0.410700
     21 H1           0.3800    -5.0100     0.0930 h4         1 43S       0.189000
     22 H2          -2.2840    -4.4850     0.0450 ha         1 43S       0.166000
     23 H3          -3.6250    -1.7920    -0.0290 ha         1 43S       0.153000
     24 H4          -0.7570     1.4080    -0.0520 ha         1 43S       0.186000
     25 H5           4.1990     3.4640     0.0590 hn         1 43S       0.319700
     26 H7           4.3720    -2.4970    -0.1930 hn         1 43S       0.437800
     27 H8           5.6350    -1.3440    -0.1770 hn         1 43S       0.437800
     28 H9           1.8890     4.4810     0.0720 h5         1 43S       0.067800
@<TRIPOS>BOND
     1     1     2 1   
     2     1    12 ar  
     3     1    16 ar  
     4     2     3 ar  
     5     2     9 ar  
     6     3     7 ar  
     7     3    15 1   
     8     4     8 ar  
     9     4     9 ar  
    10     4    14 1   
    11     5     6 2   
    12     5    15 1   
    13     5    21 1   
    14     6     7 1   
    15     6    22 1   
    16     7     8 ar  
    17     8    23 1   
    18     9    24 1   
    19    10    17 ar  
    20    10    19 ar  
    21    11    19 1   
    22    11    20 1   
    23    11    25 1   
    24    12    13 1   
    25    12    19 ar  
    26    13    20 2   
    27    16    17 ar  
    28    17    18 1   
    29    18    26 1   
    30    18    27 1   
    31    20    28 1   
@<TRIPOS>SUBSTRUCTURE
     1 43S         1 TEMP              0 ****  ****    0 ROOT
