@<TRIPOS>MOLECULE
43S
   28    31     1     0     0
SMALL
No Charge or Current Charge


@<TRIPOS>ATOM
      1 C4           1.5500    -0.0950    -0.1480 cp         1 43S       0.299500
      2 C5           0.1280    -0.5730    -0.1940 cp         1 43S      -0.156500
      3 C6          -0.2580    -1.8830     0.1830 ca         1 43S       0.111100
      4 C11         -2.2730    -0.1730    -0.6830 ca         1 43S      -0.055900
      5 C7          -0.2210    -3.9640     0.9110 cc         1 43S      -0.074900
      6 C8          -1.5320    -3.6520     0.6020 cd         1 43S      -0.236200
      7 C9          -1.5600    -2.3050     0.1350 ca         1 43S      -0.137800
      8 C10         -2.6070    -1.4850    -0.2950 ca         1 43S      -0.011000
      9 C12         -0.9310     0.2770    -0.6330 ca         1 43S      -0.028000
     10 N1           4.2150     0.6770    -0.1340 nb         1 43S      -0.257000
     11 N2           3.3830     2.8620     0.5780 na         1 43S      -0.424300
     12 C3           1.9120     1.2400     0.2140 ca         1 43S      -0.078600
     13 N3           1.1600     2.3460     0.6130 nc         1 43S      -0.550100
     14 Br          -3.6470     1.0130    -1.2870 br         1 43S      -0.095100
     15 O            0.5980    -2.8600     0.6600 os         1 43S      -0.135200
     16 N4           2.5130    -0.9820    -0.4830 nb         1 43S      -0.256000
     17 C            3.7800    -0.5490    -0.4570 ca         1 43S       0.398900
     18 N            4.7310    -1.4510    -0.7990 nv         1 43S      -1.051900
     19 C1           3.2570     1.5580     0.2000 ca         1 43S       0.145500
     20 C2           2.0820     3.2990     0.8210 cd         1 43S       0.410700
     21 H1           0.2460    -4.8670     1.2940 h4         1 43S       0.239000
     22 H2          -2.3830    -4.3230     0.7030 ha         1 43S       0.216000
     23 H3          -3.6340    -1.8440    -0.3240 ha         1 43S       0.135000
     24 H4          -0.7100     1.2930    -0.9530 ha         1 43S       0.168000
     25 H5           4.2320     3.4040     0.6700 hn         1 43S       0.370000
     26 H7           4.4410    -2.3130    -1.2540 hn         1 43S       0.493000
     27 H8           5.6700    -1.1170    -1.0050 hn         1 43S       0.493000
     28 H9           1.8810     4.3150     1.1440 h5         1 43S       0.067800
@<TRIPOS>BOND
     1     1     2 1   
     2     1    12 ar  
     3     1    16 ar  
     4     2     3 ar  
     5     2     9 ar  
     6     3     7 ar  
     7     3    15 1   
     8     4     8 ar  
     9     4     9 ar  
    10     4    14 1   
    11     5     6 2   
    12     5    15 1   
    13     5    21 1   
    14     6     7 1   
    15     6    22 1   
    16     7     8 ar  
    17     8    23 1   
    18     9    24 1   
    19    10    17 ar  
    20    10    19 ar  
    21    11    19 1   
    22    11    20 1   
    23    11    25 1   
    24    12    13 1   
    25    12    19 ar  
    26    13    20 2   
    27    16    17 ar  
    28    17    18 1   
    29    18    26 1   
    30    18    27 1   
    31    20    28 1   
@<TRIPOS>SUBSTRUCTURE
     1 43S         1 TEMP              0 ****  ****    0 ROOT
