@<TRIPOS>MOLECULE
43T
   60    62     1     0     0
SMALL
No Charge or Current Charge


@<TRIPOS>ATOM
      1 C1           4.4790     1.4700     0.7530 c6         1 43T      -0.184400
      2 C2           3.4730     0.6620     1.5600 c          1 43T       0.569000
      3 N3           3.4160    -0.7180     1.3210 n          1 43T      -0.388300
      4 C4           4.2600    -1.2480     0.3410 c2         1 43T       0.668800
      5 N5           4.8350    -0.5660    -0.5640 n2         1 43T      -0.708900
      6 C6           4.6320     0.8900    -0.6710 c6         1 43T       0.179200
      7 C7           3.3290     1.1280    -1.5030 c3         1 43T      -0.097100
      8 C8           5.8920     1.5080    -1.4130 c3         1 43T      -0.038700
      9 N9           4.5360    -2.5620     0.4620 nv         1 43T      -1.008200
     10 C10          2.3180    -1.4960     1.9490 c3         1 43T       0.154300
     11 O11          2.7190     1.2240     2.3440 o          1 43T      -0.526000
     12 C12          6.1870     0.9080    -2.8180 c3         1 43T      -0.086100
     13 C13          5.8920     3.0580    -1.5140 c3         1 43T      -0.086100
     14 C14          1.0330    -1.4360     1.1320 ca         1 43T      -0.094300
     15 C15         -0.0100    -0.5640     1.5030 ca         1 43T      -0.048000
     16 C16         -1.2000    -0.4810     0.7420 ca         1 43T      -0.129600
     17 C17         -1.3230    -1.2990    -0.4100 ca         1 43T      -0.126000
     18 C18         -0.2810    -2.1650    -0.7780 ca         1 43T       0.156000
     19 C19          0.8910    -2.2370    -0.0160 ca         1 43T      -0.120000
     20 F20         -0.4100    -2.9350    -1.8800 f          1 43T      -0.178000
     21 C21         -2.2940     0.4730     1.1800 c          1 43T       0.615700
     22 O22         -2.1900     1.1680     2.1830 o          1 43T      -0.599100
     23 N23         -3.4230     0.5190     0.3920 ns         1 43T      -0.498900
     24 C24         -4.5800     1.3800     0.6300 c3         1 43T       0.157000
     25 C25         -5.8110     0.8000    -0.0640 ca         1 43T      -0.098300
     26 C26         -6.8890     0.3140     0.7040 ca         1 43T      -0.099000
     27 C27         -8.0240    -0.2280     0.0750 ca         1 43T      -0.111000
     28 C28         -8.0900    -0.2900    -1.3260 ca         1 43T      -0.104000
     29 C29         -7.0190     0.1880    -2.0990 ca         1 43T      -0.111000
     30 C30         -5.8830     0.7300    -1.4720 ca         1 43T      -0.099000
     31 C31         -4.2930     2.8330     0.1980 c3         1 43T      -0.107100
     32 H1           4.2130     2.5340     0.7800 hc         1 43T       0.082200
     33 H2           5.4440     1.3410     1.2590 hc         1 43T       0.082200
     34 H3           3.1160     2.1960    -1.6260 hc         1 43T       0.044033
     35 H4           3.3920     0.6840    -2.5030 hc         1 43T       0.044033
     36 H5           2.4500     0.6840    -1.0200 hc         1 43T       0.044033
     37 H6           6.7690     1.2560    -0.8030 hc         1 43T       0.048700
     38 H7           4.6720    -2.8510     1.4210 hn         1 43T       0.464000
     39 H8           5.2840    -2.8390    -0.1600 hn         1 43T       0.464000
     40 H9           2.6100    -2.5460     2.0740 h1         1 43T       0.068200
     41 H10          2.1300    -1.1160     2.9620 h1         1 43T       0.068200
     42 H11          5.4090     1.1820    -3.5400 hc         1 43T       0.035367
     43 H12          7.1430     1.2850    -3.2010 hc         1 43T       0.035367
     44 H13          6.2590    -0.1850    -2.7840 hc         1 43T       0.035367
     45 H14          5.8400     3.5260    -0.5250 hc         1 43T       0.035367
     46 H15          6.8160     3.4110    -1.9890 hc         1 43T       0.035367
     47 H16          5.0500     3.4200    -2.1150 hc         1 43T       0.035367
     48 H17          0.1110     0.0590     2.3870 ha         1 43T       0.148000
     49 H18         -2.2120    -1.2780    -1.0330 ha         1 43T       0.134000
     50 H19          1.6890    -2.9100    -0.3210 ha         1 43T       0.144000
     51 H20         -3.4490    -0.0960    -0.4090 hn         1 43T       0.314500
     52 H21         -4.7720     1.3910     1.7130 h1         1 43T       0.084700
     53 H22         -6.8500     0.3540     1.7910 ha         1 43T       0.113000
     54 H23         -8.8510    -0.6000     0.6750 ha         1 43T       0.114000
     55 H24         -8.9680    -0.7100    -1.8120 ha         1 43T       0.114000
     56 H25         -7.0670     0.1380    -3.1850 ha         1 43T       0.114000
     57 H26         -5.0600     1.0920    -2.0830 ha         1 43T       0.113000
     58 H27         -5.1770     3.4610     0.3630 hc         1 43T       0.044700
     59 H28         -3.4660     3.2560     0.7800 hc         1 43T       0.044700
     60 H29         -4.0250     2.8870    -0.8630 hc         1 43T       0.044700
@<TRIPOS>BOND
     1     1     2 1   
     2     1     6 1   
     3     1    32 1   
     4     1    33 1   
     5     2     3 1   
     6     2    11 2   
     7     3     4 1   
     8     3    10 1   
     9     4     5 2   
    10     4     9 1   
    11     5     6 1   
    12     6     7 1   
    13     6     8 1   
    14     7    34 1   
    15     7    35 1   
    16     7    36 1   
    17     8    12 1   
    18     8    13 1   
    19     8    37 1   
    20     9    38 1   
    21     9    39 1   
    22    10    14 1   
    23    10    40 1   
    24    10    41 1   
    25    12    42 1   
    26    12    43 1   
    27    12    44 1   
    28    13    45 1   
    29    13    46 1   
    30    13    47 1   
    31    14    15 ar  
    32    14    19 ar  
    33    15    16 ar  
    34    15    48 1   
    35    16    17 ar  
    36    16    21 1   
    37    17    18 ar  
    38    17    49 1   
    39    18    19 ar  
    40    18    20 1   
    41    19    50 1   
    42    21    22 2   
    43    21    23 1   
    44    23    24 1   
    45    23    51 1   
    46    24    25 1   
    47    24    31 1   
    48    24    52 1   
    49    25    26 ar  
    50    25    30 ar  
    51    26    27 ar  
    52    26    53 1   
    53    27    28 ar  
    54    27    54 1   
    55    28    29 ar  
    56    28    55 1   
    57    29    30 ar  
    58    29    56 1   
    59    30    57 1   
    60    31    58 1   
    61    31    59 1   
    62    31    60 1   
@<TRIPOS>SUBSTRUCTURE
     1 43T         1 TEMP              0 ****  ****    0 ROOT
