@<TRIPOS>MOLECULE
43T
   60    62     1     0     0
SMALL
abcg2


@<TRIPOS>ATOM
      1 C1           4.2930     1.6080     0.4180 c6         1 43T      -0.184400
      2 C2           3.2160     0.9090     1.1920 c          1 43T       0.569000
      3 N3           3.3050    -0.4620     1.2130 n          1 43T      -0.388300
      4 C4           4.3030    -1.1030     0.4550 c2         1 43T       0.668800
      5 N5           4.9800    -0.5470    -0.4620 n2         1 43T      -0.708900
      6 C6           4.6840     0.8250    -0.8370 c6         1 43T       0.179200
      7 C7           3.5360     0.8350    -1.8510 c3         1 43T      -0.097100
      8 C8           5.9830     1.4180    -1.4360 c3         1 43T      -0.038700
      9 N9           4.4690    -2.4380     0.7290 nv         1 43T      -1.008200
     10 C10          2.2570    -1.1880     1.9260 c3         1 43T       0.154300
     11 O11          2.3340     1.4900     1.7910 o          1 43T      -0.526000
     12 C12          6.4360     0.6790    -2.6920 c3         1 43T      -0.086100
     13 C13          5.8990     2.9150    -1.7210 c3         1 43T      -0.086100
     14 C14          0.9710    -1.2380     1.1430 ca         1 43T      -0.094300
     15 C15         -0.1630    -0.5820     1.5970 ca         1 43T      -0.048000
     16 C16         -1.3490    -0.6220     0.8700 ca         1 43T      -0.129600
     17 C17         -1.4080    -1.3410    -0.3200 ca         1 43T      -0.126000
     18 C18         -0.2700    -1.9940    -0.7490 ca         1 43T       0.156000
     19 C19          0.9160    -1.9580    -0.0480 ca         1 43T      -0.120000
     20 F20         -0.3280    -2.7040    -1.8850 f          1 43T      -0.178000
     21 C21         -2.5400     0.0990     1.4240 c          1 43T       0.615700
     22 O22         -2.6650     0.2630     2.6290 o          1 43T      -0.599100
     23 N23         -3.4310     0.5360     0.5190 ns         1 43T      -0.498900
     24 C24         -4.6430     1.2610     0.8700 c3         1 43T       0.157000
     25 C25         -5.7870     0.7750     0.0080 ca         1 43T      -0.098300
     26 C26         -6.8140     0.0230     0.5680 ca         1 43T      -0.099000
     27 C27         -7.8660    -0.4380    -0.2140 ca         1 43T      -0.111000
     28 C28         -7.8980    -0.1570    -1.5720 ca         1 43T      -0.104000
     29 C29         -6.8750     0.5910    -2.1420 ca         1 43T      -0.111000
     30 C30         -5.8290     1.0550    -1.3570 ca         1 43T      -0.099000
     31 C31         -4.4320     2.7690     0.7800 c3         1 43T      -0.107100
     32 H1           3.9460     2.6160     0.1930 hc         1 43T       0.082200
     33 H2           5.1640     1.7020     1.0780 hc         1 43T       0.082200
     34 H3           3.3020     1.8460    -2.1870 hc         1 43T       0.044033
     35 H4           3.7890     0.2380    -2.7270 hc         1 43T       0.044033
     36 H5           2.6200     0.4140    -1.4290 hc         1 43T       0.044033
     37 H6           6.7500     1.2670    -0.6670 hc         1 43T       0.048700
     38 H7           4.5110    -2.7020     1.7020 hn         1 43T       0.464000
     39 H8           5.2380    -2.8330     0.2090 hn         1 43T       0.464000
     40 H9           2.5920    -2.2000     2.1300 h1         1 43T       0.068200
     41 H10          2.0940    -0.7130     2.8920 h1         1 43T       0.068200
     42 H11          5.7990     0.9150    -3.5470 hc         1 43T       0.035367
     43 H12          7.4520     0.9750    -2.9570 hc         1 43T       0.035367
     44 H13          6.4270    -0.4010    -2.5510 hc         1 43T       0.035367
     45 H14          5.6820     3.5040    -0.8300 hc         1 43T       0.035367
     46 H15          6.8500     3.2730    -2.1180 hc         1 43T       0.035367
     47 H16          5.1330     3.1400    -2.4660 hc         1 43T       0.035367
     48 H17         -0.1220    -0.0240     2.5230 ha         1 43T       0.148000
     49 H18         -2.3200    -1.4270    -0.8980 ha         1 43T       0.134000
     50 H19          1.7800    -2.4990    -0.4150 ha         1 43T       0.144000
     51 H20         -3.1850     0.5020    -0.4590 hn         1 43T       0.314500
     52 H21         -4.8690     1.0070     1.9060 h1         1 43T       0.084700
     53 H22         -6.7950    -0.2030     1.6270 ha         1 43T       0.113000
     54 H23         -8.6590    -1.0180     0.2410 ha         1 43T       0.114000
     55 H24         -8.7140    -0.5180    -2.1840 ha         1 43T       0.114000
     56 H25         -6.8920     0.8150    -3.2010 ha         1 43T       0.114000
     57 H26         -5.0450     1.6420    -1.8210 ha         1 43T       0.113000
     58 H27         -5.3430     3.2980     1.0610 hc         1 43T       0.044700
     59 H28         -3.6350     3.0810     1.4540 hc         1 43T       0.044700
     60 H29         -4.1600     3.0780    -0.2300 hc         1 43T       0.044700
@<TRIPOS>BOND
     1     1     2 1   
     2     1     6 1   
     3     1    32 1   
     4     1    33 1   
     5     2     3 1   
     6     2    11 2   
     7     3     4 1   
     8     3    10 1   
     9     4     5 2   
    10     4     9 1   
    11     5     6 1   
    12     6     7 1   
    13     6     8 1   
    14     7    34 1   
    15     7    35 1   
    16     7    36 1   
    17     8    12 1   
    18     8    13 1   
    19     8    37 1   
    20     9    38 1   
    21     9    39 1   
    22    10    14 1   
    23    10    40 1   
    24    10    41 1   
    25    12    42 1   
    26    12    43 1   
    27    12    44 1   
    28    13    45 1   
    29    13    46 1   
    30    13    47 1   
    31    14    15 ar  
    32    14    19 ar  
    33    15    16 ar  
    34    15    48 1   
    35    16    17 ar  
    36    16    21 1   
    37    17    18 ar  
    38    17    49 1   
    39    18    19 ar  
    40    18    20 1   
    41    19    50 1   
    42    21    22 2   
    43    21    23 1   
    44    23    24 1   
    45    23    51 1   
    46    24    25 1   
    47    24    31 1   
    48    24    52 1   
    49    25    26 ar  
    50    25    30 ar  
    51    26    27 ar  
    52    26    53 1   
    53    27    28 ar  
    54    27    54 1   
    55    28    29 ar  
    56    28    55 1   
    57    29    30 ar  
    58    29    56 1   
    59    30    57 1   
    60    31    58 1   
    61    31    59 1   
    62    31    60 1   
@<TRIPOS>SUBSTRUCTURE
     1 43T         1 TEMP              0 ****  ****    0 ROOT
