@<TRIPOS>MOLECULE
43U
   29    31     1     0     0
SMALL
abcg2


@<TRIPOS>ATOM
      1 C4          -2.2280    -0.4450    -0.9930 ca         1 43U      -0.066900
      2 C5          -0.9500     0.0840    -0.9000 ca         1 43U      -0.006000
      3 C6           0.0860    -0.6750    -0.3730 cp         1 43U      -0.187500
      4 C11          1.6990     3.0140     1.2700 cc         1 43U       0.404700
      5 C7           1.4410    -0.0880    -0.3120 cp         1 43U       0.297500
      6 C8           1.6780     1.1480     0.2790 ca         1 43U      -0.081600
      7 C9           3.0070     1.5900     0.2470 ca         1 43U       0.146500
      8 C10          3.6820    -0.2180    -0.8290 ca         1 43U       0.392900
      9 N1           4.6550    -0.9280    -1.4460 nv         1 43U      -1.050900
     10 N2           2.4480    -0.7510    -0.8580 nb         1 43U      -0.241000
     11 C3          -2.4880    -1.7280    -0.5480 ca         1 43U      -0.030000
     12 N3           2.9910     2.7880     0.8860 na         1 43U      -0.427300
     13 BR          -3.6180     0.5970    -1.7330 br         1 43U      -0.097100
     14 C2          -1.4640    -2.4880    -0.0010 ca         1 43U      -0.215000
     15 C1          -0.1730    -1.9740     0.0970 ca         1 43U       0.193100
     16 O            0.8530    -2.6320     0.6480 os         1 43U      -0.322100
     17 C            0.6320    -3.9270     1.1750 c3         1 43U       0.146900
     18 N            4.0290     0.9520    -0.2880 nb         1 43U      -0.258000
     19 N4           0.8830     2.0640     0.9300 nd         1 43U      -0.532100
     20 H1          -0.7400     1.0850    -1.2540 ha         1 43U       0.142000
     21 H3           4.4740    -1.8970    -1.6440 hn         1 43U       0.490500
     22 H4           5.6120    -0.6830    -1.2590 hn         1 43U       0.490500
     23 H5          -3.4810    -2.1540    -0.6130 ha         1 43U       0.127000
     24 H6           3.7790     3.3930     1.0570 hn         1 43U       0.368000
     25 H7          -1.6980    -3.4820     0.3510 ha         1 43U       0.121000
     26 H8           1.5850    -4.2570     1.5800 h1         1 43U       0.043033
     27 H9          -0.1090    -3.9210     1.9780 h1         1 43U       0.043033
     28 H10          0.3150    -4.6330     0.4040 h1         1 43U       0.043033
     29 H2           1.4250     3.9110     1.8040 h5         1 43U       0.066800
@<TRIPOS>BOND
     1     1     2 ar  
     2     1    11 ar  
     3     1    13 1   
     4     2     3 ar  
     5     2    20 1   
     6     3     5 1   
     7     3    15 ar  
     8     4    12 1   
     9     4    19 2   
    10     4    29 1   
    11     5     6 ar  
    12     5    10 ar  
    13     6     7 ar  
    14     6    19 1   
    15     7    12 1   
    16     7    18 ar  
    17     8     9 1   
    18     8    10 ar  
    19     8    18 ar  
    20     9    21 1   
    21     9    22 1   
    22    11    14 ar  
    23    11    23 1   
    24    12    24 1   
    25    14    15 ar  
    26    14    25 1   
    27    15    16 1   
    28    16    17 1   
    29    17    26 1   
    30    17    27 1   
    31    17    28 1   
@<TRIPOS>SUBSTRUCTURE
     1 43U         1 TEMP              0 ****  ****    0 ROOT
