@<TRIPOS>MOLECULE
43U
   29    31     1     0     0
SMALL
No Charge or Current Charge


@<TRIPOS>ATOM
      1 C4          -2.2910    -0.3990    -0.8970 ca         1 43U      -0.066900
      2 C5          -0.9890     0.1190    -0.8130 ca         1 43U      -0.006000
      3 C6           0.0860    -0.6710    -0.3330 cp         1 43U      -0.187500
      4 C11          1.6980     3.2130     1.1420 cc         1 43U       0.404700
      5 C7           1.4620    -0.0820    -0.2700 cp         1 43U       0.297500
      6 C8           1.7130     1.2210     0.2560 ca         1 43U      -0.081600
      7 C9           3.0190     1.6720     0.2290 ca         1 43U       0.146500
      8 C10          3.7050    -0.2530    -0.7480 ca         1 43U       0.392900
      9 N1           4.7180    -0.9960    -1.2580 nv         1 43U      -1.050900
     10 N2           2.4830    -0.8070    -0.7790 nb         1 43U      -0.241000
     11 C3          -2.5540    -1.7180    -0.5000 ca         1 43U      -0.030000
     12 N3           3.0010     2.9120     0.7800 na         1 43U      -0.427300
     13 Br          -3.7110     0.6970    -1.5590 br         1 43U      -0.097100
     14 C2          -1.5100    -2.5200    -0.0100 ca         1 43U      -0.215000
     15 C1          -0.1980    -2.0040     0.0760 ca         1 43U       0.193100
     16 O            0.8460    -2.7490     0.5900 os         1 43U      -0.322100
     17 C            0.6780    -4.1020     1.0470 c3         1 43U       0.146900
     18 N            4.0390     0.9540    -0.2680 nb         1 43U      -0.258000
     19 N4           0.8810     2.1930     0.8340 nd         1 43U      -0.532100
     20 H1          -0.8060     1.1420    -1.1350 ha         1 43U       0.142000
     21 H3           4.5560    -1.9860    -1.4270 hn         1 43U       0.490500
     22 H4           5.6760    -0.7140    -1.0640 hn         1 43U       0.490500
     23 H5          -3.5640    -2.1160    -0.5650 ha         1 43U       0.127000
     24 H6           3.7990     3.5190     0.9090 hn         1 43U       0.368000
     25 H7          -1.7410    -3.5340     0.3010 ha         1 43U       0.121000
     26 H8           1.6330    -4.5020     1.4090 h1         1 43U       0.043033
     27 H9          -0.0450    -4.1490     1.8710 h1         1 43U       0.043033
     28 H10          0.3270    -4.7480     0.2320 h1         1 43U       0.043033
     29 H2           1.4180     4.1520     1.6070 h5         1 43U       0.066800
@<TRIPOS>BOND
     1     1     2 ar  
     2     1    11 ar  
     3     1    13 1   
     4     2     3 ar  
     5     2    20 1   
     6     3     5 1   
     7     3    15 ar  
     8     4    12 1   
     9     4    19 2   
    10     4    29 1   
    11     5     6 ar  
    12     5    10 ar  
    13     6     7 ar  
    14     6    19 1   
    15     7    12 1   
    16     7    18 ar  
    17     8     9 1   
    18     8    10 ar  
    19     8    18 ar  
    20     9    21 1   
    21     9    22 1   
    22    11    14 ar  
    23    11    23 1   
    24    12    24 1   
    25    14    15 ar  
    26    14    25 1   
    27    15    16 1   
    28    16    17 1   
    29    17    26 1   
    30    17    27 1   
    31    17    28 1   
@<TRIPOS>SUBSTRUCTURE
     1 43U         1 TEMP              0 ****  ****    0 ROOT
