@<TRIPOS>MOLECULE
43V
   54    57     1     0     0
SMALL
No Charge or Current Charge


@<TRIPOS>ATOM
      1 N1           0.6500     1.1120     1.3000 ns         1 43V      -0.470400
      2 C4           5.0850     1.0720    -1.0070 ca         1 43V      -0.014500
      3 C5           4.0700     1.5560    -0.1650 ca         1 43V      -0.110500
      4 C6           4.0030     1.1480     1.1810 ca         1 43V      -0.025300
      5 C7           2.8990     1.6700     2.0930 c3         1 43V      -0.114100
      6 C8           1.7030     0.7140     2.0870 c          1 43V       0.603100
      7 C10         -2.5380     0.2720     0.1850 cc         1 43V       0.359500
      8 C13         -3.3240    -3.2150     1.5380 ca         1 43V      -0.093500
      9 C15         -5.6780    -3.8340     1.5640 ca         1 43V      -0.102000
     10 C17         -5.0080    -1.5830     0.9220 ca         1 43V      -0.093500
     11 C20         -4.9760     0.1500    -2.6910 ca         1 43V       0.114000
     12 C21         -5.7220     1.3200    -2.4850 ca         1 43V      -0.091000
     13 C22         -5.4250     2.1550    -1.3930 ca         1 43V      -0.103000
     14 C24          4.9660     0.2480     1.6770 ca         1 43V      -0.110500
     15 C1           9.9450     0.4730    -2.1880 c3         1 43V      -0.071100
     16 C2           8.6760     0.7760    -1.3560 c3         1 43V      -0.293400
     17 O1           6.9160    -0.3380    -2.9790 o          1 43V      -0.519000
     18 O2           7.8590    -1.7160    -1.0390 o          1 43V      -0.519000
     19 C3           6.0460     0.1690    -0.5080 ca         1 43V      -0.260500
     20 C25          5.9840    -0.2400     0.8400 ca         1 43V      -0.014500
     21 O3           1.7070    -0.3250     2.7280 o          1 43V      -0.556100
     22 C9          -0.5410     0.4820     1.0710 cd         1 43V       0.525300
     23 N2          -1.4140     1.0520     0.2670 nc         1 43V      -0.682000
     24 S2          -1.0270    -1.0780     1.7510 ss         1 43V       0.086600
     25 C11         -2.5470    -0.9280     0.8750 cd         1 43V      -0.200000
     26 C12         -3.6420    -1.9080     1.1000 ca         1 43V      -0.014000
     27 C16         -6.0140    -2.5380     1.1480 ca         1 43V      -0.109500
     28 C14         -4.3310    -4.1700     1.7620 ca         1 43V      -0.109500
     29 C18         -3.6300     0.6430    -0.7110 ca         1 43V      -0.096500
     30 C19         -3.9340    -0.1870    -1.8120 ca         1 43V      -0.075000
     31 C23         -4.3830     1.8220    -0.5090 ca         1 43V       0.139000
     32 Cl2         -4.0840     2.8770     0.8730 cl         1 43V      -0.184000
     33 H1           0.7850     1.9920     0.8260 hn         1 43V       0.342500
     34 H2           5.1200     1.4030    -2.0440 ha         1 43V       0.139500
     35 H3           3.3340     2.2510    -0.5630 ha         1 43V       0.121500
     36 H4           3.2770     1.7480     3.1180 hc         1 43V       0.076700
     37 H5           2.5870     2.6630     1.7480 hc         1 43V       0.076700
     38 H6          -2.2900    -3.5130     1.6880 ha         1 43V       0.119000
     39 H7          -6.4570    -4.5720     1.7390 ha         1 43V       0.114000
     40 H8          -5.3170    -0.5830     0.6440 ha         1 43V       0.119000
     41 H9          -6.5290     1.5780    -3.1660 ha         1 43V       0.133000
     42 H10         -6.0070     3.0580    -1.2270 ha         1 43V       0.134000
     43 H11          4.9250    -0.0770     2.7140 ha         1 43V       0.121500
     44 H12         10.3730    -0.5000    -1.9130 hc         1 43V       0.054033
     45 H13          9.7170     0.4580    -3.2610 hc         1 43V       0.054033
     46 H14         10.7080     1.2410    -2.0140 hc         1 43V       0.054033
     47 H15          8.9170     0.7900    -0.2870 h1         1 43V       0.093200
     48 H16          8.2600     1.7490    -1.6380 h1         1 43V       0.093200
     49 H17          6.7200    -0.9340     1.2450 ha         1 43V       0.139500
     50 H18         -7.0590    -2.2680     1.0080 ha         1 43V       0.115500
     51 H19         -4.0650    -5.1730     2.0890 ha         1 43V       0.115500
     52 H20         -3.3620    -1.0960    -1.9830 ha         1 43V       0.141000
     53 Cl1         -5.3460    -0.8990    -4.0530 cl         1 43V      -0.192000
     54 S1           7.3600    -0.4460    -1.5830 sy         1 43V       1.040500
@<TRIPOS>BOND
     1     1     6 1   
     2     1    22 1   
     3     1    33 1   
     4     2     3 ar  
     5     2    19 ar  
     6     2    34 1   
     7     3     4 ar  
     8     3    35 1   
     9     4     5 1   
    10     4    14 ar  
    11     5     6 1   
    12     5    36 1   
    13     5    37 1   
    14     6    21 2   
    15     7    23 1   
    16     7    25 2   
    17     7    29 1   
    18     8    26 ar  
    19     8    28 ar  
    20     8    38 1   
    21     9    27 ar  
    22     9    28 ar  
    23     9    39 1   
    24    10    26 ar  
    25    10    27 ar  
    26    10    40 1   
    27    11    12 ar  
    28    11    30 ar  
    29    11    53 1   
    30    12    13 ar  
    31    12    41 1   
    32    13    31 ar  
    33    13    42 1   
    34    14    20 ar  
    35    14    43 1   
    36    15    16 1   
    37    15    44 1   
    38    15    45 1   
    39    15    46 1   
    40    16    47 1   
    41    16    48 1   
    42    16    54 1   
    43    17    54 2   
    44    18    54 2   
    45    19    20 ar  
    46    19    54 1   
    47    20    49 1   
    48    22    23 2   
    49    22    24 1   
    50    24    25 1   
    51    25    26 1   
    52    27    50 1   
    53    28    51 1   
    54    29    30 ar  
    55    29    31 ar  
    56    30    52 1   
    57    31    32 1   
@<TRIPOS>SUBSTRUCTURE
     1 43V         1 TEMP              0 ****  ****    0 ROOT
