@<TRIPOS>MOLECULE
43V
   54    57     1     0     0
SMALL
bcc


@<TRIPOS>ATOM
      1 N1           0.3610     1.5200     0.0100 ns         1 43V      -0.537400
      2 C4           5.7530     0.4280    -1.4360 ca         1 43V      -0.032500
      3 C5           4.5440     1.0810    -1.2570 ca         1 43V      -0.128500
      4 C6           4.0400     1.3110     0.0190 ca         1 43V      -0.025300
      5 C7           2.7240     2.0040     0.1980 c3         1 43V      -0.114100
      6 C8           1.5840     1.0210     0.3340 c          1 43V       0.670100
      7 C10         -2.9680     0.4580    -0.0110 cc         1 43V       0.424800
      8 C13         -3.0280    -3.2190     0.4430 ca         1 43V      -0.111500
      9 C15         -5.0210    -4.1410     1.4270 ca         1 43V      -0.120000
     10 C17         -4.6440    -1.7640     1.4680 ca         1 43V      -0.111500
     11 C20         -6.2910     0.5190    -1.7440 ca         1 43V       0.022400
     12 C21         -6.9520     1.5530    -1.1000 ca         1 43V      -0.109000
     13 C22         -6.3060     2.2360    -0.0830 ca         1 43V      -0.121000
     14 C24          4.7640     0.8730     1.1240 ca         1 43V      -0.128500
     15 C1          10.6200    -0.0270    -0.6750 c3         1 43V      -0.071100
     16 C2           9.2140     0.5130    -0.4780 c3         1 43V      -0.182600
     17 O1           8.0440    -1.4060    -1.8740 o          1 43V      -0.589800
     18 O2           8.2410    -1.6900     0.6170 o          1 43V      -0.589800
     19 C3           6.4580     0.0020    -0.3190 ca         1 43V      -0.260500
     20 C25          5.9740     0.2180     0.9640 ca         1 43V      -0.032500
     21 O3           1.7170    -0.1200     0.7290 o          1 43V      -0.556100
     22 C9          -0.8140     0.8200     0.1200 cd         1 43V       0.525300
     23 N2          -1.9500     1.3500    -0.1930 nc         1 43V      -0.682000
     24 S2          -0.8850    -0.8150     0.6740 ss         1 43V      -0.058300
     25 C11         -2.6060    -0.7700     0.4570 cd         1 43V      -0.120400
     26 C12         -3.4360    -1.9290     0.7880 ca         1 43V      -0.014000
     27 C16         -5.4320    -2.8610     1.7790 ca         1 43V      -0.127500
     28 C14         -3.8140    -4.3160     0.7640 ca         1 43V      -0.127500
     29 C18         -4.3420     0.8500    -0.3720 ca         1 43V      -0.096500
     30 C19         -5.0000     0.1680    -1.3920 ca         1 43V      -0.093000
     31 C23         -5.0140     1.8830     0.2750 ca         1 43V       0.047400
     32 CL2         -4.2590     2.7120     1.5900 cl         1 43V      -0.092400
     33 H1           0.2750     2.4680    -0.3300 hn         1 43V       0.342500
     34 H2           6.1300     0.2550    -2.4340 ha         1 43V       0.157500
     35 H3           3.9890     1.4140    -2.1260 ha         1 43V       0.139500
     36 H4           2.7310     2.6100     1.1100 hc         1 43V       0.076700
     37 H5           2.5320     2.6940    -0.6260 hc         1 43V       0.076700
     38 H6          -2.0990    -3.3690    -0.0930 ha         1 43V       0.137000
     39 H7          -5.6350    -4.9970     1.6740 ha         1 43V       0.132000
     40 H8          -4.9630    -0.7760     1.7720 ha         1 43V       0.137000
     41 H9          -7.9610     1.8260    -1.3780 ha         1 43V       0.151000
     42 H10         -6.8170     3.0360     0.4350 ha         1 43V       0.152000
     43 H11          4.3860     1.0500     2.1230 ha         1 43V       0.139500
     44 H12         10.8870    -0.7500     0.0950 hc         1 43V       0.054033
     45 H13         10.7390    -0.4930    -1.6510 hc         1 43V       0.054033
     46 H14         11.3250     0.8000    -0.6120 hc         1 43V       0.054033
     47 H15          9.0970     1.0040     0.4890 h1         1 43V       0.093200
     48 H16          8.9400     1.2220    -1.2600 h1         1 43V       0.093200
     49 H17          6.5240    -0.1170     1.8330 ha         1 43V       0.157500
     50 H18         -6.3650    -2.7160     2.3080 ha         1 43V       0.133500
     51 H19         -3.4830    -5.3090     0.4890 ha         1 43V       0.133500
     52 H20         -4.4910    -0.6360    -1.9070 ha         1 43V       0.159000
     53 CL1         -7.0870    -0.3430    -3.0150 cl         1 43V      -0.100400
     54 S1           8.0150    -0.8170    -0.5350 sy         1 43V       1.071300
@<TRIPOS>BOND
     1     1     6 1   
     2     1    22 1   
     3     1    33 1   
     4     2     3 ar  
     5     2    19 ar  
     6     2    34 1   
     7     3     4 ar  
     8     3    35 1   
     9     4     5 1   
    10     4    14 ar  
    11     5     6 1   
    12     5    36 1   
    13     5    37 1   
    14     6    21 2   
    15     7    23 1   
    16     7    25 2   
    17     7    29 1   
    18     8    26 ar  
    19     8    28 ar  
    20     8    38 1   
    21     9    27 ar  
    22     9    28 ar  
    23     9    39 1   
    24    10    26 ar  
    25    10    27 ar  
    26    10    40 1   
    27    11    12 ar  
    28    11    30 ar  
    29    11    53 1   
    30    12    13 ar  
    31    12    41 1   
    32    13    31 ar  
    33    13    42 1   
    34    14    20 ar  
    35    14    43 1   
    36    15    16 1   
    37    15    44 1   
    38    15    45 1   
    39    15    46 1   
    40    16    47 1   
    41    16    48 1   
    42    16    54 1   
    43    17    54 2   
    44    18    54 2   
    45    19    20 ar  
    46    19    54 1   
    47    20    49 1   
    48    22    23 2   
    49    22    24 1   
    50    24    25 1   
    51    25    26 1   
    52    27    50 1   
    53    28    51 1   
    54    29    30 ar  
    55    29    31 ar  
    56    30    52 1   
    57    31    32 1   
@<TRIPOS>SUBSTRUCTURE
     1 43V         1 TEMP              0 ****  ****    0 ROOT
