@<TRIPOS>MOLECULE
43Z
   34    35     1     0     0
SMALL
abcg2


@<TRIPOS>ATOM
      1 CL          -1.8280    -1.8250     0.1070 cl         1 43Z      -0.155000
      2 CAP         -2.6480    -0.3150     0.2410 ca         1 43Z       0.079000
      3 CAN         -3.8870    -0.1810    -0.3620 ca         1 43Z       0.176000
      4 FAD         -4.3960    -1.2200    -1.0270 f          1 43Z      -0.160000
      5 CAG         -4.6040     0.9970    -0.2880 ca         1 43Z      -0.141000
      6 CAF         -4.0600     2.0600     0.4150 ca         1 43Z      -0.085000
      7 CAH         -2.8200     1.9340     1.0260 ca         1 43Z      -0.114000
      8 CAO         -2.0960     0.7490     0.9510 ca         1 43Z      -0.080300
      9 CAI         -0.7450     0.6420     1.6060 c3         1 43Z       0.146300
     10 NAL          0.3090     0.5560     0.6230 ns         1 43Z      -0.513900
     11 CAM          1.2680    -0.3930     0.6140 c          1 43Z       0.614100
     12 OAA          1.3490    -1.2590     1.4700 o          1 43Z      -0.581100
     13 CAS          2.2300    -0.2700    -0.5540 c5         1 43Z      -0.145700
     14 CAJ          3.2330    -1.4360    -0.6850 c5         1 43Z      -0.067400
     15 CAQ          4.6170    -0.8290    -0.5140 c5         1 43Z       0.130300
     16 OAB          4.9510    -0.8100     0.8560 oh         1 43Z      -0.648500
     17 CAR          4.4230     0.5960    -1.0450 c5         1 43Z       0.130300
     18 OAC          5.4430     1.4920    -0.6750 oh         1 43Z      -0.648500
     19 CAK          3.0880     1.0110    -0.4450 c5         1 43Z      -0.067400
     20 H1          -5.5690     1.0730    -0.7720 ha         1 43Z       0.137000
     21 H2          -4.6060     2.9910     0.4820 ha         1 43Z       0.123000
     22 H3          -2.4010     2.7700     1.5710 ha         1 43Z       0.121000
     23 H4          -0.5960     1.5080     2.2550 h1         1 43Z       0.070700
     24 H5          -0.6920    -0.2430     2.2390 h1         1 43Z       0.070700
     25 H6           0.3130     1.2500    -0.1080 hn         1 43Z       0.310500
     26 H7           1.6260    -0.2130    -1.4640 hc         1 43Z       0.059700
     27 H8           3.0530    -2.2300     0.0380 hc         1 43Z       0.067450
     28 H9           3.1520    -1.8830    -1.6770 hc         1 43Z       0.067450
     29 H10          5.3750    -1.3750    -1.0930 h1         1 43Z       0.036700
     30 H11          5.6530    -0.1600     0.9740 ho         1 43Z       0.447500
     31 H12          4.3220     0.5390    -2.1380 h1         1 43Z       0.036700
     32 H13          6.2130     1.3250    -1.2270 ho         1 43Z       0.447500
     33 H14          2.6420     1.8600    -0.9630 hc         1 43Z       0.067450
     34 H15          3.2310     1.3000     0.6000 hc         1 43Z       0.067450
@<TRIPOS>BOND
     1     1     2 1   
     2     2     3 ar  
     3     2     8 ar  
     4     3     4 1   
     5     3     5 ar  
     6     5     6 ar  
     7     5    20 1   
     8     6     7 ar  
     9     6    21 1   
    10     7     8 ar  
    11     7    22 1   
    12     8     9 1   
    13     9    10 1   
    14     9    23 1   
    15     9    24 1   
    16    10    11 1   
    17    10    25 1   
    18    11    12 2   
    19    11    13 1   
    20    13    14 1   
    21    13    19 1   
    22    13    26 1   
    23    14    15 1   
    24    14    27 1   
    25    14    28 1   
    26    15    16 1   
    27    15    17 1   
    28    15    29 1   
    29    16    30 1   
    30    17    18 1   
    31    17    19 1   
    32    17    31 1   
    33    18    32 1   
    34    19    33 1   
    35    19    34 1   
@<TRIPOS>SUBSTRUCTURE
     1 43Z         1 TEMP              0 ****  ****    0 ROOT
