@<TRIPOS>MOLECULE
43Z
   34    35     1     0     0
SMALL
No Charge or Current Charge


@<TRIPOS>ATOM
      1 Cl          -2.1460    -2.1190     0.2060 cl         1 43Z      -0.155000
      2 CAP         -2.8970    -0.5170     0.2340 ca         1 43Z       0.079000
      3 CAN         -4.1380    -0.3230    -0.4060 ca         1 43Z       0.176000
      4 FAD         -4.7530    -1.3530    -1.0320 f          1 43Z      -0.160000
      5 CAG         -4.7510     0.9400    -0.4040 ca         1 43Z      -0.141000
      6 CAF         -4.1240     2.0200     0.2390 ca         1 43Z      -0.085000
      7 CAH         -2.8860     1.8340     0.8790 ca         1 43Z      -0.114000
      8 CAO         -2.2640     0.5680     0.8850 ca         1 43Z      -0.080300
      9 CAI         -0.9210     0.3990     1.5860 c3         1 43Z       0.146300
     10 NAL          0.1840     0.4280     0.6300 ns         1 43Z      -0.513900
     11 CAM          1.4760     0.0680     0.9330 c          1 43Z       0.614100
     12 OAA          1.8220    -0.2950     2.0480 o          1 43Z      -0.581100
     13 CAS          2.3620     0.2020    -0.3360 c5         1 43Z      -0.145700
     14 CAJ          3.0370    -1.1740    -0.6930 c5         1 43Z      -0.067400
     15 CAQ          4.5740    -0.9000    -0.6950 c5         1 43Z       0.130300
     16 OAB          5.1670    -1.1880     0.5730 oh         1 43Z      -0.648500
     17 CAR          4.6270     0.6250    -1.0300 c5         1 43Z       0.130300
     18 OAC          5.9180     1.1920    -0.7870 oh         1 43Z      -0.648500
     19 CAK          3.5510     1.1780    -0.0630 c5         1 43Z      -0.067400
     20 H1          -5.7080     1.0790    -0.9010 ha         1 43Z       0.137000
     21 H2          -4.5950     3.0010     0.2400 ha         1 43Z       0.123000
     22 H3          -2.4090     2.6790     1.3710 ha         1 43Z       0.121000
     23 H4          -0.7770     1.2080     2.3150 h1         1 43Z       0.070700
     24 H5          -0.9020    -0.5490     2.1400 h1         1 43Z       0.070700
     25 H6          -0.0070     0.7150    -0.3220 hn         1 43Z       0.310500
     26 H7           1.7660     0.5580    -1.1860 hc         1 43Z       0.059700
     27 H8           2.7710    -1.9780     0.0040 hc         1 43Z       0.067450
     28 H9           2.7080    -1.5110    -1.6830 hc         1 43Z       0.067450
     29 H10          5.0720    -1.4910    -1.4770 h1         1 43Z       0.036700
     30 H11          5.8130    -0.4600     0.7170 ho         1 43Z       0.447500
     31 H12          4.3270     0.8010    -2.0740 h1         1 43Z       0.036700
     32 H13          6.4680     1.0070    -1.5810 ho         1 43Z       0.447500
     33 H14          3.2900     2.2200    -0.2820 hc         1 43Z       0.067450
     34 H15          3.8890     1.1460     0.9790 hc         1 43Z       0.067450
@<TRIPOS>BOND
     1     1     2 1   
     2     2     3 ar  
     3     2     8 ar  
     4     3     4 1   
     5     3     5 ar  
     6     5     6 ar  
     7     5    20 1   
     8     6     7 ar  
     9     6    21 1   
    10     7     8 ar  
    11     7    22 1   
    12     8     9 1   
    13     9    10 1   
    14     9    23 1   
    15     9    24 1   
    16    10    11 1   
    17    10    25 1   
    18    11    12 2   
    19    11    13 1   
    20    13    14 1   
    21    13    19 1   
    22    13    26 1   
    23    14    15 1   
    24    14    27 1   
    25    14    28 1   
    26    15    16 1   
    27    15    17 1   
    28    15    29 1   
    29    16    30 1   
    30    17    18 1   
    31    17    19 1   
    32    17    31 1   
    33    18    32 1   
    34    19    33 1   
    35    19    34 1   
@<TRIPOS>SUBSTRUCTURE
     1 43Z         1 TEMP              0 ****  ****    0 ROOT
