@<TRIPOS>MOLECULE
440
   34    34     1     0     0
SMALL
abcg2


@<TRIPOS>ATOM
      1 C           -1.9000    -0.1020     1.0540 ca         1 440      -0.196500
      2 C1          -0.5520    -0.4120     1.1240 ca         1 440       0.024500
      3 C2          -0.5290    -0.8960    -1.2400 ca         1 440       0.024500
      4 C3          -1.8710    -0.5910    -1.3140 ca         1 440      -0.196500
      5 C4          -2.5670    -0.1900    -0.1680 ca         1 440       0.202100
      6 O           -3.8670     0.0830    -0.3410 os         1 440      -0.331100
      7 C5          -4.6290     0.5030     0.7850 c3         1 440       0.259700
      8 C6          -8.4980     1.1900    -0.4140 c3         1 440      -0.014000
      9 C7          -7.1280     0.9400     0.0010 c1         1 440      -0.079100
     10 C8          -5.9940     0.7360     0.3430 c1         1 440      -0.171100
     11 C9           0.1300    -0.8040    -0.0170 ca         1 440      -0.319500
     12 O1           2.1590    -1.6130     1.4420 o          1 440      -0.521500
     13 O2           2.2070    -2.0490    -1.0330 o          1 440      -0.521500
     14 S            1.8520    -1.1710     0.0820 sy         1 440       1.058500
     15 C10          2.6510     0.4130    -0.1750 c3         1 440      -0.304400
     16 C11          4.1630     0.2820    -0.0570 c3         1 440      -0.041400
     17 C12          4.8160     1.6370    -0.2890 c3         1 440       0.088600
     18 S1           6.6220     1.4520    -0.1110 sh         1 440      -0.449800
     19 H           -2.4060     0.1990     1.9600 ha         1 440       0.131000
     20 H1          -0.0460    -0.3440     2.0790 ha         1 440       0.137500
     21 H2          -0.0050    -1.2080    -2.1340 ha         1 440       0.137500
     22 H3          -2.3940    -0.6620    -2.2590 ha         1 440       0.131000
     23 H51         -4.6130    -0.2610     1.5690 h1         1 440       0.055200
     24 H52         -4.2120     1.4220     1.2110 h1         1 440       0.055200
     25 H61         -9.0850     1.5860     0.4150 hc         1 440       0.057700
     26 H62         -8.5350     1.9160    -1.2260 hc         1 440       0.057700
     27 H63         -8.9800     0.2740    -0.7560 hc         1 440       0.057700
     28 H101         2.3490     0.7660    -1.1630 h1         1 440       0.093700
     29 H102         2.2460     1.0970     0.5740 h1         1 440       0.093700
     30 H111         4.4260    -0.0890     0.9340 hc         1 440       0.075700
     31 H112         4.5350    -0.4360    -0.7900 hc         1 440       0.075700
     32 H121         4.5860     2.0070    -1.2880 h1         1 440       0.058200
     33 H122         4.4540     2.3650     0.4380 h1         1 440       0.058200
     34 H1A          6.9520     2.7280    -0.3360 hs         1 440       0.210800
@<TRIPOS>BOND
     1     1     2 ar  
     2     1     5 ar  
     3     1    19 1   
     4     2    11 ar  
     5     2    20 1   
     6     3     4 ar  
     7     3    11 ar  
     8     3    21 1   
     9     4     5 ar  
    10     4    22 1   
    11     5     6 1   
    12     6     7 1   
    13     7    10 1   
    14     7    23 1   
    15     7    24 1   
    16     8     9 1   
    17     8    25 1   
    18     8    26 1   
    19     8    27 1   
    20     9    10 3   
    21    11    14 1   
    22    12    14 2   
    23    13    14 2   
    24    14    15 1   
    25    15    16 1   
    26    15    28 1   
    27    15    29 1   
    28    16    17 1   
    29    16    30 1   
    30    16    31 1   
    31    17    18 1   
    32    17    32 1   
    33    17    33 1   
    34    18    34 1   
@<TRIPOS>SUBSTRUCTURE
     1 440         1 TEMP              0 ****  ****    0 ROOT
