@<TRIPOS>MOLECULE
440
   34    34     1     0     0
SMALL
No Charge or Current Charge


@<TRIPOS>ATOM
      1 C           -1.9190    -0.1510     1.1070 ca         1 440      -0.196500
      2 C1          -0.5540    -0.4750     1.1860 ca         1 440       0.024500
      3 C2          -0.5140    -0.8820    -1.2190 ca         1 440       0.024500
      4 C3          -1.8780    -0.5570    -1.2900 ca         1 440      -0.196500
      5 C4          -2.5870    -0.1930    -0.1360 ca         1 440       0.202100
      6 O           -3.9240     0.1150    -0.2740 os         1 440      -0.331100
      7 C5          -4.7400     0.5000     0.8440 c3         1 440       0.259700
      8 C6          -8.5920     1.2290    -0.4990 c3         1 440      -0.014000
      9 C7          -7.2320     0.9730    -0.0140 c1         1 440      -0.079100
     10 C8          -6.1020     0.7560     0.3590 c1         1 440      -0.171100
     11 C9           0.1510    -0.8440     0.0220 ca         1 440      -0.319500
     12 O1           2.2160    -1.6630     1.4930 o          1 440      -0.521500
     13 O2           2.2580    -2.0880    -1.0310 o          1 440      -0.521500
     14 S            1.9040    -1.2470     0.1200 sy         1 440       1.058500
     15 C10          2.7010     0.3550    -0.1360 c3         1 440      -0.304400
     16 C11          4.2490     0.2770    -0.0970 c3         1 440      -0.041400
     17 C12          4.9170     1.6470    -0.3160 c3         1 440       0.088600
     18 S1           6.7670     1.5710    -0.2720 sh         1 440      -0.449800
     19 H           -2.4380     0.1290     2.0190 ha         1 440       0.131000
     20 H1          -0.0510    -0.4350     2.1510 ha         1 440       0.137500
     21 H2           0.0180    -1.1600    -2.1290 ha         1 440       0.137500
     22 H3          -2.3910    -0.5870    -2.2470 ha         1 440       0.131000
     23 H51         -4.7730    -0.2980     1.5970 h1         1 440       0.055200
     24 H52         -4.3510     1.4130     1.3150 h1         1 440       0.055200
     25 H61         -9.2130     1.6370     0.3070 hc         1 440       0.057700
     26 H62         -8.5730     1.9490    -1.3250 hc         1 440       0.057700
     27 H63         -9.0500     0.2990    -0.8570 hc         1 440       0.057700
     28 H101         2.3600     0.7270    -1.1090 h1         1 440       0.093700
     29 H102         2.3310     1.0220     0.6500 h1         1 440       0.093700
     30 H111         4.5750    -0.1250     0.8710 hc         1 440       0.075700
     31 H112         4.6050    -0.4170    -0.8690 hc         1 440       0.075700
     32 H121         4.6110     2.0510    -1.2900 h1         1 440       0.058200
     33 H122         4.5810     2.3460     0.4620 h1         1 440       0.058200
     34 H1A          6.9750     2.8930    -0.4910 hs         1 440       0.210800
@<TRIPOS>BOND
     1     1     2 ar  
     2     1     5 ar  
     3     1    19 1   
     4     2    11 ar  
     5     2    20 1   
     6     3     4 ar  
     7     3    11 ar  
     8     3    21 1   
     9     4     5 ar  
    10     4    22 1   
    11     5     6 1   
    12     6     7 1   
    13     7    10 1   
    14     7    23 1   
    15     7    24 1   
    16     8     9 1   
    17     8    25 1   
    18     8    26 1   
    19     8    27 1   
    20     9    10 3   
    21    11    14 1   
    22    12    14 2   
    23    13    14 2   
    24    14    15 1   
    25    15    16 1   
    26    15    28 1   
    27    15    29 1   
    28    16    17 1   
    29    16    30 1   
    30    16    31 1   
    31    17    18 1   
    32    17    32 1   
    33    17    33 1   
    34    18    34 1   
@<TRIPOS>SUBSTRUCTURE
     1 440         1 TEMP              0 ****  ****    0 ROOT
