@<TRIPOS>MOLECULE
442
   54    56     1     0     0
SMALL
abcg2


@<TRIPOS>ATOM
      1 O3           1.0500     1.1540     8.4120 oh         1 442      -0.680500
      2 C8           1.1820     1.1210     7.0240 c3         1 442       0.386300
      3 O2           2.5130     1.0310     6.6120 oh         1 442      -0.680500
      4 C7           0.3390    -0.0540     6.5300 c3         1 442      -0.066100
      5 C5           0.3710    -0.1710     5.0350 ca         1 442      -0.076300
      6 C6          -0.5060     0.5810     4.2600 ca         1 442      -0.059500
      7 C4           1.2950    -0.9940     4.4010 ca         1 442      -0.059500
      8 C3           1.3270    -1.0690     3.0180 ca         1 442      -0.036900
      9 BR2          2.5660    -2.1970     2.1670 br         1 442      -0.062600
     10 C2           0.4620    -0.3140     2.2330 ca         1 442       0.150100
     11 C1          -0.4570     0.5090     2.8780 ca         1 442      -0.036900
     12 BR1         -1.6320     1.5470     1.8430 br         1 442      -0.062600
     13 O4           0.5420    -0.3550     0.8840 os         1 442      -0.234200
     14 C11         -0.3340    -1.1620     0.1910 ca         1 442       0.086100
     15 C12         -0.3770    -0.9770    -1.1810 ca         1 442      -0.063000
     16 C13         -1.2230    -1.7370    -1.9780 ca         1 442      -0.198300
     17 C14         -2.0340    -2.7100    -1.3710 ca         1 442       0.141100
     18 C15         -1.9700    -2.8920     0.0050 ca         1 442      -0.128000
     19 C16         -1.1230    -2.1270     0.7930 ca         1 442      -0.121000
     20 O           -2.8680    -3.5060    -2.0740 oh         1 442      -0.552100
     21 C17         -1.2380    -1.5720    -3.4880 c3         1 442       0.457800
     22 O1          -2.5810    -1.6910    -3.9850 oh         1 442      -0.707000
     23 N28         -0.5570    -0.3980    -3.8960 n7         1 442      -0.915400
     24 C29         -0.3740    -0.2230    -5.3250 c3         1 442       0.181800
     25 C30          0.6660     0.8630    -5.5950 c3         1 442      -0.036100
     26 C31          0.8650     1.0780    -7.0690 ca         1 442      -0.082300
     27 C36          1.8510     0.3810    -7.7640 ca         1 442      -0.105500
     28 C35          2.0110     0.5490    -9.1340 ca         1 442      -0.109000
     29 C32          0.0390     1.9460    -7.7800 ca         1 442      -0.105500
     30 C33          0.1950     2.1180    -9.1490 ca         1 442      -0.109000
     31 C34          1.1830     1.4190    -9.8310 ca         1 442      -0.110000
     32 HO3          1.4360     1.9730     8.7430 ho         1 442       0.455000
     33 H8           0.8140     2.0490     6.5690 h2         1 442       0.064700
     34 HO2          2.8840     0.1940     6.9200 ho         1 442       0.455000
     35 H71          0.7030    -0.9780     6.9910 hc         1 442       0.068700
     36 H72         -0.6900     0.0870     6.8680 hc         1 442       0.068700
     37 H6          -1.2310     1.2250     4.7430 ha         1 442       0.132500
     38 H4           1.9800    -1.5870     4.9920 ha         1 442       0.132500
     39 H12          0.2660    -0.2360    -1.6380 ha         1 442       0.145000
     40 H15         -2.5930    -3.6470     0.4690 ha         1 442       0.131000
     41 H16         -1.1010    -2.2980     1.8620 ha         1 442       0.127000
     42 HO          -3.0130    -3.0940    -2.9470 ho         1 442       0.493000
     43 H17         -0.7280    -2.4280    -3.9410 h2         1 442       0.097700
     44 HO1         -3.1000    -0.9440    -3.6580 ho         1 442       0.447000
     45 H28         -0.9520     0.4340    -3.4730 hn         1 442       0.427000
     46 H291        -0.0230    -1.1700    -5.7450 h1         1 442       0.041200
     47 H292        -1.3040     0.0280    -5.8500 h1         1 442       0.041200
     48 H301         0.3420     1.7960    -5.1250 hc         1 442       0.054200
     49 H302         1.6070     0.5770    -5.1220 hc         1 442       0.054200
     50 H36          2.5040    -0.2970    -7.2270 ha         1 442       0.111000
     51 H35          2.7870     0.0030    -9.6560 ha         1 442       0.112500
     52 H32         -0.7340     2.4980    -7.2560 ha         1 442       0.111000
     53 H33         -0.4530     2.8000    -9.6850 ha         1 442       0.112500
     54 H34          1.3090     1.5540   -10.8980 ha         1 442       0.112000
@<TRIPOS>BOND
     1     1     2 1   
     2     1    32 1   
     3     2     3 1   
     4     2     4 1   
     5     2    33 1   
     6     3    34 1   
     7     4     5 1   
     8     4    35 1   
     9     4    36 1   
    10     5     6 ar  
    11     5     7 ar  
    12     6    11 ar  
    13     6    37 1   
    14     7     8 ar  
    15     7    38 1   
    16     8     9 1   
    17     8    10 ar  
    18    10    11 ar  
    19    10    13 1   
    20    11    12 1   
    21    13    14 1   
    22    14    15 ar  
    23    14    19 ar  
    24    15    16 ar  
    25    15    39 1   
    26    16    17 ar  
    27    16    21 1   
    28    17    18 ar  
    29    17    20 1   
    30    18    19 ar  
    31    18    40 1   
    32    19    41 1   
    33    20    42 1   
    34    21    22 1   
    35    21    23 1   
    36    21    43 1   
    37    22    44 1   
    38    23    24 1   
    39    23    45 1   
    40    24    25 1   
    41    24    46 1   
    42    24    47 1   
    43    25    26 1   
    44    25    48 1   
    45    25    49 1   
    46    26    27 ar  
    47    26    29 ar  
    48    27    28 ar  
    49    27    50 1   
    50    28    31 ar  
    51    28    51 1   
    52    29    30 ar  
    53    29    52 1   
    54    30    31 ar  
    55    30    53 1   
    56    31    54 1   
@<TRIPOS>SUBSTRUCTURE
     1 442         1 TEMP              0 ****  ****    0 ROOT
