@<TRIPOS>MOLECULE
442
   54    56     1     0     0
SMALL
No Charge or Current Charge


@<TRIPOS>ATOM
      1 O3           1.2410     1.4620     8.4540 oh         1 442      -0.680500
      2 C8           1.4310     1.1780     7.0860 c3         1 442       0.386300
      3 O2           2.7320     0.6410     6.9940 oh         1 442      -0.680500
      4 C7           0.3760     0.1550     6.6050 c3         1 442      -0.066100
      5 C5           0.5140    -0.2080     5.1280 ca         1 442      -0.076300
      6 C6           0.2660     0.7610     4.1350 ca         1 442      -0.059500
      7 C4           0.8810    -1.5140     4.7440 ca         1 442      -0.059500
      8 C3           1.0050    -1.8450     3.3830 ca         1 442      -0.036900
      9 Br2          1.5020    -3.6320     2.8940 br         1 442      -0.062600
     10 C2           0.7570    -0.8740     2.3950 ca         1 442       0.150100
     11 C1           0.3890     0.4320     2.7730 ca         1 442      -0.036900
     12 Br1          0.0500     1.7830     1.4530 br         1 442      -0.062600
     13 O4           0.8770    -1.2050     1.0640 os         1 442      -0.234200
     14 C11         -0.2110    -1.5040     0.2720 ca         1 442       0.086100
     15 C12         -0.0200    -1.5960    -1.1170 ca         1 442      -0.063000
     16 C13         -1.0920    -1.8980    -1.9860 ca         1 442      -0.198300
     17 C14         -2.3750    -2.1070    -1.4200 ca         1 442       0.141100
     18 C15         -2.5690    -2.0180    -0.0320 ca         1 442      -0.128000
     19 C16         -1.4920    -1.7190     0.8190 ca         1 442      -0.121000
     20 O           -3.4360    -2.4080    -2.2120 oh         1 442      -0.552100
     21 C17         -0.7900    -1.9520    -3.4880 c3         1 442       0.457800
     22 O1          -1.7910    -2.6270    -4.2170 oh         1 442      -0.707000
     23 N28         -0.8010    -0.6110    -4.0130 n7         1 442      -0.915400
     24 C29         -0.2720    -0.4090    -5.3790 c3         1 442       0.181800
     25 C30         -0.2600     1.0910    -5.7320 c3         1 442      -0.036100
     26 C31          0.2920     1.3460    -7.1290 ca         1 442      -0.082300
     27 C36          1.6750     1.5250    -7.3250 ca         1 442      -0.105500
     28 C35          2.1850     1.7550    -8.6150 ca         1 442      -0.109000
     29 C32         -0.5760     1.3960    -8.2380 ca         1 442      -0.105500
     30 C33         -0.0660     1.6260    -9.5280 ca         1 442      -0.109000
     31 C34          1.3150     1.8060    -9.7160 ca         1 442      -0.110000
     32 HO3          1.7220     2.3020     8.6160 ho         1 442       0.455000
     33 H8           1.3650     2.1060     6.5000 h2         1 442       0.064700
     34 HO2          2.6480    -0.2950     7.2680 ho         1 442       0.455000
     35 H71          0.4280    -0.7430     7.2320 hc         1 442       0.068700
     36 H72         -0.6190     0.5810     6.7780 hc         1 442       0.068700
     37 H6          -0.0230     1.7700     4.4180 ha         1 442       0.132500
     38 H4           1.0720    -2.2740     5.4980 ha         1 442       0.132500
     39 H12          0.9730    -1.4200    -1.5240 ha         1 442       0.145000
     40 H15         -3.5580    -2.1850     0.3860 ha         1 442       0.131000
     41 H16         -1.6630    -1.6600     1.8900 ha         1 442       0.127000
     42 HO          -3.0360    -2.5410    -3.1150 ho         1 442       0.493000
     43 H17          0.1830    -2.4430    -3.6510 h2         1 442       0.097700
     44 HO1         -1.4330    -2.7100    -5.1250 ho         1 442       0.447000
     45 H28         -1.7720    -0.2940    -3.9760 hn         1 442       0.427000
     46 H291         0.7550    -0.7950    -5.4530 h1         1 442       0.041200
     47 H292        -0.8830    -0.9390    -6.1230 h1         1 442       0.041200
     48 H301        -1.2790     1.4890    -5.6500 hc         1 442       0.054200
     49 H302         0.3410     1.6290    -4.9870 hc         1 442       0.054200
     50 H36          2.3560     1.4850    -6.4770 ha         1 442       0.111000
     51 H35          3.2550     1.8920    -8.7600 ha         1 442       0.112500
     52 H32         -1.6460     1.2560    -8.1010 ha         1 442       0.111000
     53 H33         -0.7410     1.6640   -10.3800 ha         1 442       0.112500
     54 H34          1.7100     1.9830   -10.7150 ha         1 442       0.112000
@<TRIPOS>BOND
     1     1     2 1   
     2     1    32 1   
     3     2     3 1   
     4     2     4 1   
     5     2    33 1   
     6     3    34 1   
     7     4     5 1   
     8     4    35 1   
     9     4    36 1   
    10     5     6 ar  
    11     5     7 ar  
    12     6    11 ar  
    13     6    37 1   
    14     7     8 ar  
    15     7    38 1   
    16     8     9 1   
    17     8    10 ar  
    18    10    11 ar  
    19    10    13 1   
    20    11    12 1   
    21    13    14 1   
    22    14    15 ar  
    23    14    19 ar  
    24    15    16 ar  
    25    15    39 1   
    26    16    17 ar  
    27    16    21 1   
    28    17    18 ar  
    29    17    20 1   
    30    18    19 ar  
    31    18    40 1   
    32    19    41 1   
    33    20    42 1   
    34    21    22 1   
    35    21    23 1   
    36    21    43 1   
    37    22    44 1   
    38    23    24 1   
    39    23    45 1   
    40    24    25 1   
    41    24    46 1   
    42    24    47 1   
    43    25    26 1   
    44    25    48 1   
    45    25    49 1   
    46    26    27 ar  
    47    26    29 ar  
    48    27    28 ar  
    49    27    50 1   
    50    28    31 ar  
    51    28    51 1   
    52    29    30 ar  
    53    29    52 1   
    54    30    31 ar  
    55    30    53 1   
    56    31    54 1   
@<TRIPOS>SUBSTRUCTURE
     1 442         1 TEMP              0 ****  ****    0 ROOT
