@<TRIPOS>MOLECULE
443
   58    61     1     0     0
SMALL
abcg2


@<TRIPOS>ATOM
      1 C4           0.5210    -2.0800     0.2860 c3         1 443      -0.339400
      2 C8           3.1110    -1.3520    -0.4830 ca         1 443      -0.267500
      3 C10          5.1170    -1.1790     0.8120 ca         1 443      -0.106000
      4 C13          6.5020     2.2220     0.3400 ca         1 443       0.139000
      5 C15          5.5580     2.7960    -0.5360 ca         1 443      -0.107000
      6 C17          4.3240     0.7190    -0.5080 ca         1 443      -0.068000
      7 C22         -3.2000    -0.6700     2.2290 c6         1 443       0.098000
      8 C24         -4.3030     0.9960     0.7290 c6         1 443       0.141700
      9 C26         -1.9980     0.1210     0.2730 c6         1 443       0.098000
     10 C28         -5.7160     3.0150     0.5050 c6         1 443       0.113000
     11 O1          -0.8720    -3.9260    -0.4330 oh         1 443      -0.636000
     12 C2          -0.8650    -2.5640    -0.1580 c3         1 443       0.127300
     13 S5           1.7320    -2.3290    -1.0210 sy         1 443       1.059500
     14 O6           2.1540    -3.7250    -1.0520 o          1 443      -0.510000
     15 O7           1.1810    -1.7270    -2.2350 o          1 443      -0.510000
     16 C9           4.0550    -1.9270     0.3930 ca         1 443      -0.035000
     17 C11          5.2820     0.1570     0.3730 ca         1 443       0.009000
     18 C12          6.3810     0.9390     0.7920 ca         1 443      -0.104000
     19 CL14         7.8450     3.1850     0.8440 cl         1 443      -0.190000
     20 C16          4.4900     2.0520    -0.9490 ca         1 443      -0.075000
     21 C18          3.2300    -0.0650    -0.9300 ca         1 443       0.017000
     22 C19         -1.8530    -2.2620     0.9810 c          1 443       0.580100
     23 O20         -2.1740    -3.1980     1.7030 o          1 443      -0.611100
     24 N21         -2.2760    -1.0040     1.1530 n          1 443      -0.393800
     25 C23         -4.5310    -0.1910     1.6630 c6         1 443      -0.114400
     26 C25         -3.2810     0.6480    -0.3550 c6         1 443      -0.114400
     27 N27         -5.5280     1.5980     0.2170 n          1 443      -0.427800
     28 C29         -7.1540     3.4420     0.2970 c6         1 443      -0.107400
     29 C30         -7.6080     3.0120    -1.0790 c6         1 443       0.115000
     30 N31         -7.3580     1.5960    -1.2170 ns         1 443      -0.527900
     31 C32         -6.3190     0.9190    -0.6630 c          1 443       0.619000
     32 O33         -6.1330    -0.2670    -0.9400 o          1 443      -0.609000
     33 H4           0.5320    -1.0130     0.5150 h1         1 443       0.102700
     34 H4A          0.8710    -2.6180     1.1700 h1         1 443       0.102700
     35 H10          5.8500    -1.6100     1.4810 ha         1 443       0.124000
     36 H15          5.6830     3.8150    -0.8750 ha         1 443       0.134000
     37 H22         -3.3410    -1.5360     2.8700 h1         1 443       0.054950
     38 H22A        -2.7390     0.1150     2.8380 h1         1 443       0.054950
     39 H24         -3.8430     1.7810     1.3380 h1         1 443       0.035700
     40 H26         -1.5160     0.9040     0.8660 h1         1 443       0.054950
     41 H26A        -1.2970    -0.1470    -0.5130 h1         1 443       0.054950
     42 H28         -5.4290     3.1910     1.5430 h1         1 443       0.038700
     43 H28A        -5.0510     3.6240    -0.1180 h1         1 443       0.038700
     44 HO1         -1.1210    -4.3780     0.3860 ho         1 443       0.480000
     45 H2          -1.1600    -2.0410    -1.0700 h1         1 443       0.101700
     46 H9           3.9450    -2.9490     0.7280 ha         1 443       0.139000
     47 H12          7.1150     0.5130     1.4630 ha         1 443       0.136000
     48 H16          3.7600     2.4840    -1.6210 ha         1 443       0.123000
     49 H18          2.5030     0.3680    -1.6060 ha         1 443       0.138000
     50 H23         -5.0180    -1.0070     1.1320 hc         1 443       0.071200
     51 H23A        -5.1810     0.1070     2.4890 hc         1 443       0.071200
     52 H25         -3.6850    -0.1000    -1.0370 hc         1 443       0.071200
     53 H25A        -3.0410     1.5390    -0.9390 hc         1 443       0.071200
     54 H29         -7.7930     2.9880     1.0580 hc         1 443       0.062700
     55 H29A        -7.2290     4.5240     0.4040 hc         1 443       0.062700
     56 H30         -8.6750     3.1900    -1.2140 h1         1 443       0.041200
     57 H30A        -7.0830     3.5900    -1.8490 h1         1 443       0.041200
     58 HN31        -7.8780     1.0810    -1.9070 hn         1 443       0.331500
@<TRIPOS>BOND
     1     1    12 1   
     2     1    13 1   
     3     1    33 1   
     4     1    34 1   
     5     2    13 1   
     6     2    16 ar  
     7     2    21 ar  
     8     3    16 ar  
     9     3    17 ar  
    10     3    35 1   
    11     4     5 ar  
    12     4    18 ar  
    13     4    19 1   
    14     5    20 ar  
    15     5    36 1   
    16     6    17 ar  
    17     6    20 ar  
    18     6    21 ar  
    19     7    24 1   
    20     7    25 1   
    21     7    37 1   
    22     7    38 1   
    23     8    25 1   
    24     8    26 1   
    25     8    27 1   
    26     8    39 1   
    27     9    24 1   
    28     9    26 1   
    29     9    40 1   
    30     9    41 1   
    31    10    27 1   
    32    10    28 1   
    33    10    42 1   
    34    10    43 1   
    35    11    12 1   
    36    11    44 1   
    37    12    22 1   
    38    12    45 1   
    39    13    14 2   
    40    13    15 2   
    41    16    46 1   
    42    17    18 ar  
    43    18    47 1   
    44    20    48 1   
    45    21    49 1   
    46    22    23 2   
    47    22    24 1   
    48    25    50 1   
    49    25    51 1   
    50    26    52 1   
    51    26    53 1   
    52    27    31 1   
    53    28    29 1   
    54    28    54 1   
    55    28    55 1   
    56    29    30 1   
    57    29    56 1   
    58    29    57 1   
    59    30    31 1   
    60    30    58 1   
    61    31    32 2   
@<TRIPOS>SUBSTRUCTURE
     1 443         1 TEMP              0 ****  ****    0 ROOT
