@<TRIPOS>MOLECULE
443
   58    61     1     0     0
SMALL
No Charge or Current Charge


@<TRIPOS>ATOM
      1 C4           0.5830    -2.2280     0.3110 c3         1 443      -0.339400
      2 C8           3.0610    -1.3110    -0.6550 ca         1 443      -0.267500
      3 C10          5.3160    -1.3500     0.2750 ca         1 443      -0.106000
      4 C13          6.5760     2.1390     0.5750 ca         1 443       0.139000
      5 C15          5.4800     2.8640     0.0810 ca         1 443      -0.107000
      6 C17          4.2690     0.7810    -0.2880 ca         1 443      -0.068000
      7 C22         -3.0520    -0.3280     2.3300 c6         1 443       0.098000
      8 C24         -4.1880     1.1140     0.5740 c6         1 443       0.141700
      9 C26         -1.8740     0.1300     0.1960 c6         1 443       0.098000
     10 C28         -5.7020     3.0700     0.2010 c6         1 443       0.113000
     11 O1          -0.7980    -4.2030     0.0820 oh         1 443      -0.636000
     12 C2          -0.8550    -2.7610     0.0810 c3         1 443       0.127300
     13 S5           1.5740    -2.1770    -1.1930 sy         1 443       1.059500
     14 O6           1.9330    -3.5600    -1.5330 o          1 443      -0.510000
     15 O7           0.8510    -1.3200    -2.1410 o          1 443      -0.510000
     16 C9           4.1650    -2.0330    -0.1540 ca         1 443      -0.035000
     17 C11          5.3730     0.0540     0.2100 ca         1 443       0.009000
     18 C12          6.5260     0.7380     0.6400 ca         1 443      -0.104000
     19 Cl14         8.0180     2.9900     1.1140 cl         1 443      -0.190000
     20 C16          4.3250     2.1870    -0.3500 ca         1 443      -0.075000
     21 C18          3.1150     0.0970    -0.7180 ca         1 443       0.017000
     22 C19         -1.8740    -2.2500     1.1610 c          1 443       0.580100
     23 O20         -2.3920    -3.0560     1.9290 o          1 443      -0.611100
     24 N21         -2.1540    -0.8630     1.2710 n          1 443      -0.393800
     25 C23         -4.4080     0.1100     1.7320 c6         1 443      -0.114400
     26 C25         -3.1860     0.5860    -0.4830 c6         1 443      -0.114400
     27 N27         -5.4600     1.6210    -0.0120 n          1 443      -0.427800
     28 C29         -7.2000     3.4130     0.1620 c6         1 443      -0.107400
     29 C30         -7.8530     2.8180    -1.0920 c6         1 443       0.115000
     30 N31         -7.4680     1.4160    -1.2670 ns         1 443      -0.527900
     31 C32         -6.3620     0.8050    -0.7340 c          1 443       0.619000
     32 O33         -6.1930    -0.3890    -0.9100 o          1 443      -0.609000
     33 H4           0.5540    -1.1980     0.6820 h1         1 443       0.102700
     34 H4A          1.1200    -2.8430     1.0420 h1         1 443       0.102700
     35 H10          6.1620    -1.9160     0.6590 ha         1 443       0.124000
     36 H15          5.5250     3.9490     0.0330 ha         1 443       0.134000
     37 H22         -3.2190    -1.0730     3.1210 h1         1 443       0.054950
     38 H22A        -2.5650     0.5360     2.8040 h1         1 443       0.054950
     39 H24         -3.6810     1.9750     1.0330 h1         1 443       0.035700
     40 H26         -1.3740     1.0020     0.6430 h1         1 443       0.054950
     41 H26A        -1.1940    -0.2670    -0.5660 h1         1 443       0.054950
     42 H28         -5.2910     3.3890     1.1700 h1         1 443       0.038700
     43 H28A        -5.1780     3.6320    -0.5850 h1         1 443       0.038700
     44 HO1         -1.3750    -4.4870     0.8320 ho         1 443       0.480000
     45 H2          -1.2390    -2.4010    -0.8840 h1         1 443       0.101700
     46 H9           4.1370    -3.1200    -0.0930 ha         1 443       0.139000
     47 H12          7.3800     0.1870     1.0250 ha         1 443       0.136000
     48 H16          3.4800     2.7560    -0.7320 ha         1 443       0.123000
     49 H18          2.2660     0.6630    -1.0980 ha         1 443       0.138000
     50 H23         -4.9460    -0.7760     1.3750 hc         1 443       0.071200
     51 H23A        -5.0300     0.5670     2.5130 hc         1 443       0.071200
     52 H25         -3.6140    -0.2610    -1.0340 hc         1 443       0.071200
     53 H25A        -2.9710     1.3690    -1.2220 hc         1 443       0.071200
     54 H29         -7.6880     3.0000     1.0550 hc         1 443       0.062700
     55 H29A        -7.3470     4.5010     0.1930 hc         1 443       0.062700
     56 H30         -8.9480     2.8900    -1.0230 h1         1 443       0.041200
     57 H30A        -7.5280     3.3780    -1.9810 h1         1 443       0.041200
     58 HN31        -8.0870     0.8090    -1.7910 hn         1 443       0.331500
@<TRIPOS>BOND
     1     1    12 1   
     2     1    13 1   
     3     1    33 1   
     4     1    34 1   
     5     2    13 1   
     6     2    16 ar  
     7     2    21 ar  
     8     3    16 ar  
     9     3    17 ar  
    10     3    35 1   
    11     4     5 ar  
    12     4    18 ar  
    13     4    19 1   
    14     5    20 ar  
    15     5    36 1   
    16     6    17 ar  
    17     6    20 ar  
    18     6    21 ar  
    19     7    24 1   
    20     7    25 1   
    21     7    37 1   
    22     7    38 1   
    23     8    25 1   
    24     8    26 1   
    25     8    27 1   
    26     8    39 1   
    27     9    24 1   
    28     9    26 1   
    29     9    40 1   
    30     9    41 1   
    31    10    27 1   
    32    10    28 1   
    33    10    42 1   
    34    10    43 1   
    35    11    12 1   
    36    11    44 1   
    37    12    22 1   
    38    12    45 1   
    39    13    14 2   
    40    13    15 2   
    41    16    46 1   
    42    17    18 ar  
    43    18    47 1   
    44    20    48 1   
    45    21    49 1   
    46    22    23 2   
    47    22    24 1   
    48    25    50 1   
    49    25    51 1   
    50    26    52 1   
    51    26    53 1   
    52    27    31 1   
    53    28    29 1   
    54    28    54 1   
    55    28    55 1   
    56    29    30 1   
    57    29    56 1   
    58    29    57 1   
    59    30    31 1   
    60    30    58 1   
    61    31    32 2   
@<TRIPOS>SUBSTRUCTURE
     1 443         1 TEMP              0 ****  ****    0 ROOT
