@<TRIPOS>MOLECULE
445
   41    42     1     0     0
SMALL
No Charge or Current Charge


@<TRIPOS>ATOM
      1 C10         -5.1040     0.5950     0.9570 ca         1 445      -0.142500
      2 C11         -6.4840     0.5450     1.2230 ca         1 445      -0.085000
      3 C12         -7.3150    -0.3100     0.4820 ca         1 445      -0.130000
      4 C13         -6.7650    -1.1180    -0.5260 ca         1 445      -0.085000
      5 C14         -5.3860    -1.0680    -0.7920 ca         1 445      -0.142500
      6 C9          -4.5410    -0.2140    -0.0560 ca         1 445      -0.029000
      7 N2          -3.1550    -0.2170    -0.3810 ns         1 445      -0.115000
      8 C8          -2.0680     0.4870     0.1310 c          1 445       0.525100
      9 O8          -2.1290     1.3160     1.0420 o          1 445      -0.586100
     10 C7          -0.6890     0.1140    -0.5920 c          1 445       0.531100
     11 O7          -0.6130    -0.6910    -1.5190 o          1 445      -0.581100
     12 N1           0.4200     0.7790    -0.1040 ns         1 445      -0.475900
     13 C1           1.7980     0.4890    -0.4820 c6         1 445       0.302700
     14 O5           2.1870    -0.6590     0.2970 os         1 445      -0.457000
     15 C5           3.5260    -1.1520     0.0180 c6         1 445       0.178300
     16 C6           3.7570    -2.4580     0.8490 c3         1 445       0.172600
     17 O6           2.7710    -3.4810     0.5980 oh         1 445      -0.708000
     18 C4           4.5740    -0.0430     0.3500 c6         1 445       0.143300
     19 O4           5.9200    -0.4510     0.0390 oh         1 445      -0.715000
     20 C3           4.2210     1.2470    -0.4450 c6         1 445       0.139300
     21 O3           5.1290     2.3130    -0.1200 oh         1 445      -0.666000
     22 C2           2.7570     1.6840    -0.1550 c6         1 445       0.098300
     23 O2           2.4460     2.8730    -0.9220 oh         1 445      -0.716000
     24 H10         -4.4930     1.2680     1.5500 ha         1 445       0.129500
     25 H11         -6.9090     1.1710     2.0040 ha         1 445       0.115000
     26 H12         -8.3820    -0.3480     0.6890 ha         1 445       0.116000
     27 H13         -7.4070    -1.7820    -1.1020 ha         1 445       0.115000
     28 H14         -4.9730    -1.7000    -1.5760 ha         1 445       0.129500
     29 HN2         -2.9100    -0.8550    -1.1290 hn         1 445       0.183000
     30 HN1          0.2580     1.3900     0.6890 hn         1 445       0.343500
     31 H1           1.8440     0.2510    -1.5570 h2         1 445       0.086700
     32 H5           3.5930    -1.4110    -1.0500 h1         1 445       0.067700
     33 H6           4.7590    -2.8410     0.6130 h1         1 445       0.036200
     34 H6A          3.7560    -2.1870     1.9140 h1         1 445       0.036200
     35 HO6          2.9680    -4.2270     1.2130 ho         1 445       0.505000
     36 H4           4.4960     0.1850     1.4240 h1         1 445       0.053700
     37 HO4          6.4350     0.3920    -0.0050 ho         1 445       0.526000
     38 H3           4.2940     1.0170    -1.5200 h1         1 445       0.058700
     39 HO3          4.6580     3.1320    -0.4030 ho         1 445       0.466000
     40 H2           2.6710     1.9020     0.9210 h1         1 445       0.055700
     41 HO2          1.5030     3.1060    -0.7490 ho         1 445       0.518000
@<TRIPOS>BOND
     1     1     2 ar  
     2     1     6 ar  
     3     1    24 1   
     4     2     3 ar  
     5     2    25 1   
     6     3     4 ar  
     7     3    26 1   
     8     4     5 ar  
     9     4    27 1   
    10     5     6 ar  
    11     5    28 1   
    12     6     7 1   
    13     7     8 1   
    14     7    29 1   
    15     8     9 2   
    16     8    10 1   
    17    10    11 2   
    18    10    12 1   
    19    12    13 1   
    20    12    30 1   
    21    13    14 1   
    22    13    22 1   
    23    13    31 1   
    24    14    15 1   
    25    15    16 1   
    26    15    18 1   
    27    15    32 1   
    28    16    17 1   
    29    16    33 1   
    30    16    34 1   
    31    17    35 1   
    32    18    19 1   
    33    18    20 1   
    34    18    36 1   
    35    19    37 1   
    36    20    21 1   
    37    20    22 1   
    38    20    38 1   
    39    21    39 1   
    40    22    23 1   
    41    22    40 1   
    42    23    41 1   
@<TRIPOS>SUBSTRUCTURE
     1 445         1 TEMP              0 ****  ****    0 ROOT
