@<TRIPOS>MOLECULE
445
   41    42     1     0     0
SMALL
bcc


@<TRIPOS>ATOM
      1 C10         -4.9520     0.4540     1.0570 ca         1 445      -0.160500
      2 C11         -6.3230     0.4970     1.2730 ca         1 445      -0.103000
      3 C12         -7.2130    -0.0530     0.3620 ca         1 445      -0.148000
      4 C13         -6.7180    -0.6570    -0.7860 ca         1 445      -0.103000
      5 C14         -5.3550    -0.7080    -1.0160 ca         1 445      -0.160500
      6 C9          -4.4600    -0.1530    -0.0990 ca         1 445       0.063600
      7 N2          -3.1000    -0.2540    -0.4140 ns         1 445      -0.441100
      8 C8          -2.0400     0.2440     0.2340 c          1 445       0.592100
      9 O8          -2.0410     0.8940     1.2620 o          1 445      -0.586100
     10 C7          -0.7200    -0.1000    -0.4830 c          1 445       0.598100
     11 O7          -0.7080    -0.7750    -1.4950 o          1 445      -0.581100
     12 N1           0.3460     0.4320     0.1230 ns         1 445      -0.542900
     13 C1           1.6940     0.2250    -0.3010 c6         1 445       0.279500
     14 O5           2.2560    -0.7730     0.5130 os         1 445      -0.410600
     15 C5           3.5710    -1.1320     0.1350 c6         1 445       0.155100
     16 C6           4.0050    -2.2840     1.0160 c3         1 445       0.149400
     17 O6           3.1700    -3.3880     0.7630 oh         1 445      -0.585800
     18 C4           4.4960     0.0780     0.2780 c6         1 445       0.120100
     19 O4           5.7770    -0.2980    -0.1600 oh         1 445      -0.592800
     20 C3           3.9490     1.2420    -0.5410 c6         1 445       0.116100
     21 O3           4.7740     2.3550    -0.2970 oh         1 445      -0.603800
     22 C2           2.4980     1.5220    -0.1780 c6         1 445       0.075100
     23 O2           2.0190     2.5050    -1.0580 oh         1 445      -0.593800
     24 H10         -4.2890     0.8890     1.7870 ha         1 445       0.147500
     25 H11         -6.6940     0.9690     2.1730 ha         1 445       0.133000
     26 H12         -8.2790    -0.0120     0.5460 ha         1 445       0.134000
     27 H13         -7.3950    -1.0910    -1.5110 ha         1 445       0.133000
     28 H14         -4.9790    -1.1780    -1.9170 ha         1 445       0.147500
     29 HN2         -2.8790    -0.7630    -1.2610 hn         1 445       0.349500
     30 HN1          0.1830     0.9270     0.9910 hn         1 445       0.343500
     31 H1           1.6820    -0.0930    -1.3510 h2         1 445       0.086700
     32 H5           3.5810    -1.4600    -0.9180 h1         1 445       0.067700
     33 H6           5.0530    -2.5110     0.7960 h1         1 445       0.036200
     34 H6A          3.9560    -1.9660     2.0670 h1         1 445       0.036200
     35 HO6          3.4710    -4.1190     1.3090 ho         1 445       0.406000
     36 H4           4.5100     0.3780     1.3380 h1         1 445       0.053700
     37 HO4          6.3660     0.4570    -0.0560 ho         1 445       0.427000
     38 H3           3.9880     0.9530    -1.6040 h1         1 445       0.058700
     39 HO3          4.5520     3.0480    -0.9270 ho         1 445       0.427000
     40 H2           2.4550     1.8590     0.8690 h1         1 445       0.055700
     41 HO2          1.2130     2.8880    -0.6970 ho         1 445       0.419000
@<TRIPOS>BOND
     1     1     2 ar  
     2     1     6 ar  
     3     1    24 1   
     4     2     3 ar  
     5     2    25 1   
     6     3     4 ar  
     7     3    26 1   
     8     4     5 ar  
     9     4    27 1   
    10     5     6 ar  
    11     5    28 1   
    12     6     7 1   
    13     7     8 1   
    14     7    29 1   
    15     8     9 2   
    16     8    10 1   
    17    10    11 2   
    18    10    12 1   
    19    12    13 1   
    20    12    30 1   
    21    13    14 1   
    22    13    22 1   
    23    13    31 1   
    24    14    15 1   
    25    15    16 1   
    26    15    18 1   
    27    15    32 1   
    28    16    17 1   
    29    16    33 1   
    30    16    34 1   
    31    17    35 1   
    32    18    19 1   
    33    18    20 1   
    34    18    36 1   
    35    19    37 1   
    36    20    21 1   
    37    20    22 1   
    38    20    38 1   
    39    21    39 1   
    40    22    23 1   
    41    22    40 1   
    42    23    41 1   
@<TRIPOS>SUBSTRUCTURE
     1 445         1 TEMP              0 ****  ****    0 ROOT
