@<TRIPOS>MOLECULE
446
   59    62     1     0     0
SMALL
bcc


@<TRIPOS>ATOM
      1 C4          -2.0880    -1.1270    -1.0530 ca         1 446      -0.150600
      2 C5          -2.4160    -2.4760    -1.2150 ca         1 446      -0.062000
      3 C6          -3.5630    -2.9940    -0.6570 ca         1 446      -0.129000
      4 C10         -2.5770     1.1040    -0.1760 cc         1 446      -0.082400
      5 N12         -0.5860     0.7160    -1.4570 n          1 446      -0.341000
      6 C13         -0.8570    -0.6240    -1.6590 c          1 446       0.712100
      7 C15         -3.4260     2.0360     0.6030 ca         1 446      -0.050800
      8 C28         -3.0380     2.4420     1.8770 ca         1 446      -0.108000
      9 C1          -4.3930    -2.1470     0.0810 ca         1 446       0.008100
     10 C2          -4.0970    -0.8140     0.2570 ca         1 446      -0.111000
     11 C3          -2.9340    -0.2820    -0.3210 ca         1 446       0.020200
     12 C11         -1.4280     1.5340    -0.7420 cd         1 446       0.047400
     13 BR14        -5.9570    -2.8530     0.8570 br         1 446      -0.099100
     14 C16          0.6250     1.2220    -2.1020 c3         1 446       0.156300
     15 O18         -1.7560     3.7830    -1.2250 os         1 446      -0.398900
     16 C19         -1.5540     5.1890    -1.0310 c3         1 446       0.126700
     17 O23         -0.1230     3.2830     0.2230 o          1 446      -0.502000
     18 O24         -0.0990    -1.3160    -2.3170 o          1 446      -0.593500
     19 C25          1.8940     0.7740    -1.4280 ca         1 446      -0.156300
     20 C29         -3.8290     3.3220     2.6040 ca         1 446      -0.133500
     21 C30         -5.0180     3.7950     2.0670 ca         1 446      -0.126000
     22 C31         -5.4150     3.3870     0.7990 ca         1 446      -0.133500
     23 C32         -4.6230     2.5130     0.0710 ca         1 446      -0.108000
     24 C38          3.0070     0.4660    -2.1970 ca         1 446      -0.078000
     25 C39          4.2210     0.1060    -1.6290 ca         1 446      -0.181500
     26 C40          4.3370     0.0340    -0.2400 ca         1 446       0.106600
     27 C41          3.2140     0.3270     0.5390 ca         1 446      -0.181500
     28 C42          2.0160     0.6950    -0.0450 ca         1 446      -0.078000
     29 N47          5.5020    -0.3230     0.4440 ns         1 446      -0.483100
     30 C48          6.7530    -0.5570    -0.0360 c          1 446       0.664100
     31 C49          7.7830    -0.8050     1.0440 c3         1 446      -0.128400
     32 C50          8.9060    -1.7270     0.6040 c3         1 446      -0.205400
     33 C53         10.0110    -1.9420     1.6550 c          1 446       0.929600
     34 O56          7.0300    -0.5420    -1.2230 o          1 446      -0.595100
     35 O57          9.9250    -1.3150     2.7290 o          1 446      -0.843300
     36 O58         10.9150    -2.7390     1.3310 o          1 446      -0.843300
     37 H5          -1.7630    -3.1210    -1.7860 ha         1 446       0.162000
     38 H6          -3.8070    -4.0390    -0.7900 ha         1 446       0.151000
     39 H28         -2.1160     2.0660     2.3030 ha         1 446       0.142000
     40 H2          -4.7480    -0.1750     0.8380 ha         1 446       0.157000
     41 H16          0.6210     0.8960    -3.1420 h1         1 446       0.060700
     42 H16A         0.5800     2.3090    -2.1390 h1         1 446       0.060700
     43 H19         -0.5410     5.4820    -1.3000 h1         1 446       0.053033
     44 H19A        -2.2640     5.6810    -1.6870 h1         1 446       0.053033
     45 H19B        -1.7550     5.4690     0.0030 h1         1 446       0.053033
     46 H29         -3.5180     3.6340     3.5930 ha         1 446       0.132000
     47 H30         -5.6350     4.4800     2.6340 ha         1 446       0.128000
     48 H31         -6.3400     3.7550     0.3760 ha         1 446       0.132000
     49 H32         -4.9280     2.2040    -0.9210 ha         1 446       0.142000
     50 H38          2.9360     0.5040    -3.2780 ha         1 446       0.126000
     51 H39          5.0560    -0.1230    -2.2690 ha         1 446       0.149500
     52 H41          3.2810     0.2700     1.6190 ha         1 446       0.149500
     53 H42          1.1770     0.9190     0.6010 ha         1 446       0.126000
     54 HN47         5.4050    -0.3520     1.4480 hn         1 446       0.317500
     55 H49          8.1900     0.1710     1.3260 hc         1 446       0.062200
     56 H49A         7.3020    -1.1940     1.9440 hc         1 446       0.062200
     57 H50          8.5000    -2.7050     0.3280 hc         1 446       0.035200
     58 H50A         9.3720    -1.3410    -0.3070 hc         1 446       0.035200
     59 C17         -1.0100     2.9620    -0.5240 c          1 446       0.646300
@<TRIPOS>BOND
     1     1     2 ar  
     2     1     6 1   
     3     1    11 ar  
     4     2     3 ar  
     5     2    37 1   
     6     3     9 ar  
     7     3    38 1   
     8     4     7 1   
     9     4    11 1   
    10     4    12 2   
    11     5     6 1   
    12     5    12 1   
    13     5    14 1   
    14     6    18 2   
    15     7     8 ar  
    16     7    23 ar  
    17     8    20 ar  
    18     8    39 1   
    19     9    10 ar  
    20     9    13 1   
    21    10    11 ar  
    22    10    40 1   
    23    12    59 1   
    24    14    19 1   
    25    14    41 1   
    26    14    42 1   
    27    15    16 1   
    28    15    59 1   
    29    16    43 1   
    30    16    44 1   
    31    16    45 1   
    32    17    59 2   
    33    19    24 ar  
    34    19    28 ar  
    35    20    21 ar  
    36    20    46 1   
    37    21    22 ar  
    38    21    47 1   
    39    22    23 ar  
    40    22    48 1   
    41    23    49 1   
    42    24    25 ar  
    43    24    50 1   
    44    25    26 ar  
    45    25    51 1   
    46    26    27 ar  
    47    26    29 1   
    48    27    28 ar  
    49    27    52 1   
    50    28    53 1   
    51    29    30 1   
    52    29    54 1   
    53    30    31 1   
    54    30    34 2   
    55    31    32 1   
    56    31    55 1   
    57    31    56 1   
    58    32    33 1   
    59    32    57 1   
    60    32    58 1   
    61    33    35 1   
    62    33    36 1   
@<TRIPOS>SUBSTRUCTURE
     1 446         1 TEMP              0 ****  ****    0 ROOT
