@<TRIPOS>MOLECULE
446
   59    62     1     0     0
SMALL
No Charge or Current Charge


@<TRIPOS>ATOM
      1 C4          -2.2940    -1.3010    -1.2180 ca         1 446      -0.150600
      2 C5          -2.7430    -2.6380    -1.3270 ca         1 446      -0.044000
      3 C6          -3.9550    -3.0300    -0.7410 ca         1 446      -0.111000
      4 C10         -2.5840     1.0310    -0.3900 cc         1 446      -0.082400
      5 N12         -0.6180     0.4690    -1.7280 n          1 446      -0.274000
      6 C13         -1.0060    -0.8880    -1.8440 c          1 446       0.569600
      7 C15         -3.2810     1.9250     0.5390 ca         1 446      -0.050800
      8 C28         -2.7760     2.1260     1.8380 ca         1 446      -0.090000
      9 C1          -4.7200    -2.0890    -0.0430 ca         1 446       0.008100
     10 C2          -4.2760    -0.7630     0.0680 ca         1 446      -0.093000
     11 C3          -3.0580    -0.3530    -0.5260 ca         1 446       0.020200
     12 C11         -1.3720     1.4360    -0.9960 cd         1 446       0.047400
     13 Br14        -6.3710    -2.6120     0.7680 br         1 446      -0.099100
     14 C16          0.6180     0.8430    -2.4790 c3         1 446       0.156300
     15 O18         -1.8560     3.8380    -0.6170 os         1 446      -0.422100
     16 C19         -1.4560     5.2070    -0.4210 c3         1 446       0.149900
     17 O23          0.2900     3.2080    -0.8930 o          1 446      -0.453000
     18 O24         -0.3230    -1.7110    -2.4450 o          1 446      -0.518000
     19 C25          1.9360     0.6290    -1.7290 ca         1 446      -0.156300
     20 C29         -3.4510     2.9720     2.7360 ca         1 446      -0.115500
     21 C30         -4.6360     3.6150     2.3420 ca         1 446      -0.108000
     22 C31         -5.1500     3.4100     1.0500 ca         1 446      -0.115500
     23 C32         -4.4760     2.5650     0.1510 ca         1 446      -0.090000
     24 C38          3.1380     0.5920    -2.4590 ca         1 446      -0.060000
     25 C39          4.3680     0.3980    -1.8070 ca         1 446      -0.163500
     26 C40          4.4180     0.2390    -0.4060 ca         1 446       0.014000
     27 C41          3.2150     0.2740     0.3210 ca         1 446      -0.163500
     28 C42          1.9840     0.4680    -0.3290 ca         1 446      -0.060000
     29 N47          5.6220     0.0360     0.3230 ns         1 446      -0.157000
     30 C48          6.9580     0.0330    -0.0570 c          1 446       0.597100
     31 C49          7.9380    -0.2440     1.0960 c3         1 446      -0.128400
     32 C50          8.5610    -1.6680     1.0140 c3         1 446      -0.205400
     33 C53          9.5280    -1.9010     2.1860 c          1 446       0.719000
     34 O56          7.3570     0.2610    -1.1930 o          1 446      -0.595100
     35 O57         10.6960    -1.5720     2.0420 o          1 446      -0.738000
     36 O58          9.0720    -2.3450     3.2280 o          1 446      -0.738000
     37 H5          -2.1550    -3.3780    -1.8660 ha         1 446       0.144000
     38 H6          -4.2960    -4.0590    -0.8270 ha         1 446       0.133000
     39 H28         -1.8620     1.6260     2.1500 ha         1 446       0.124000
     40 H2          -4.8910    -0.0620     0.6240 ha         1 446       0.139000
     41 H16          0.6570     0.2600    -3.4090 h1         1 446       0.060700
     42 H16A         0.5510     1.8790    -2.8280 h1         1 446       0.060700
     43 H19         -0.9140     5.5880    -1.2960 h1         1 446       0.053033
     44 H19A        -2.3370     5.8420    -0.2640 h1         1 446       0.053033
     45 H19B        -0.8080     5.3030     0.4610 h1         1 446       0.053033
     46 H29         -3.0550     3.1270     3.7370 ha         1 446       0.114000
     47 H30         -5.1580     4.2690     3.0370 ha         1 446       0.110000
     48 H31         -6.0690     3.9050     0.7440 ha         1 446       0.114000
     49 H32         -4.8750     2.4090    -0.8490 ha         1 446       0.124000
     50 H38          3.1210     0.7130    -3.5410 ha         1 446       0.108000
     51 H39          5.2680     0.3690    -2.4120 ha         1 446       0.131500
     52 H41          3.2300     0.1520     1.4020 ha         1 446       0.131500
     53 H42          1.0750     0.4950     0.2670 ha         1 446       0.108000
     54 HN47         5.4730    -0.1490     1.3060 hn         1 446       0.151000
     55 H49          8.7500     0.4930     1.0460 hc         1 446       0.062200
     56 H49A         7.4180    -0.1500     2.0570 hc         1 446       0.062200
     57 H50          7.7180    -2.3680     1.0720 hc         1 446       0.035200
     58 H50A         9.1030    -1.7080     0.0610 hc         1 446       0.035200
     59 C17         -0.8880     2.8810    -0.8200 c          1 446       0.597300
@<TRIPOS>BOND
     1     1     2 ar  
     2     1     6 1   
     3     1    11 ar  
     4     2     3 ar  
     5     2    37 1   
     6     3     9 ar  
     7     3    38 1   
     8     4     7 1   
     9     4    11 1   
    10     4    12 2   
    11     5     6 1   
    12     5    12 1   
    13     5    14 1   
    14     6    18 2   
    15     7     8 ar  
    16     7    23 ar  
    17     8    20 ar  
    18     8    39 1   
    19     9    10 ar  
    20     9    13 1   
    21    10    11 ar  
    22    10    40 1   
    23    12    59 1   
    24    14    19 1   
    25    14    41 1   
    26    14    42 1   
    27    15    16 1   
    28    15    59 1   
    29    16    43 1   
    30    16    44 1   
    31    16    45 1   
    32    17    59 2   
    33    19    24 ar  
    34    19    28 ar  
    35    20    21 ar  
    36    20    46 1   
    37    21    22 ar  
    38    21    47 1   
    39    22    23 ar  
    40    22    48 1   
    41    23    49 1   
    42    24    25 ar  
    43    24    50 1   
    44    25    26 ar  
    45    25    51 1   
    46    26    27 ar  
    47    26    29 1   
    48    27    28 ar  
    49    27    52 1   
    50    28    53 1   
    51    29    30 1   
    52    29    54 1   
    53    30    31 1   
    54    30    34 2   
    55    31    32 1   
    56    31    55 1   
    57    31    56 1   
    58    32    33 1   
    59    32    57 1   
    60    32    58 1   
    61    33    35 1   
    62    33    36 1   
@<TRIPOS>SUBSTRUCTURE
     1 446         1 TEMP              0 ****  ****    0 ROOT
