@<TRIPOS>MOLECULE
447
   69    73     1     0     0
SMALL
bcc


@<TRIPOS>ATOM
      1 CAT         16.4140    -5.3620     3.7430 c6         1 447       0.144800
      2 CAQ         16.9810    -6.5220     2.9230 c6         1 447       0.130900
      3 OBA         15.9720    -7.4470     2.5980 os         1 447      -0.392600
      4 CAR         14.9990    -6.8930     1.7310 c6         1 447       0.130900
      5 CAU         14.8660    -5.3790     1.9010 c6         1 447       0.144800
      6 NBL         15.0660    -5.0580     3.2960 n3         1 447      -0.736600
      7 CAS         14.5640    -3.7720     3.7210 c3         1 447       0.183800
      8 CAO         15.2030    -2.5440     3.0640 c3         1 447      -0.118400
      9 CAP         14.6710    -1.2430     3.6200 c3         1 447       0.140400
     10 OBB         13.2830    -1.1630     3.3130 os         1 447      -0.310900
     11 CBH         12.5730    -0.1340     3.7700 ca         1 447       0.162100
     12 CAM         13.0750     0.9140     4.5060 ca         1 447      -0.291300
     13 CBG         11.1830    -0.1700     3.4580 ca         1 447       0.066100
     14 OAZ         10.6840    -1.2250     2.7680 os         1 447      -0.322900
     15 CAA         10.8350    -1.1410     1.3550 c3         1 447       0.125700
     16 CAN         10.3570     0.8310     3.8860 ca         1 447      -0.082000
     17 C5          10.8550     1.9070     4.6490 ca         1 447      -0.331600
     18 C4          12.2280     1.9440     4.9580 ca         1 447       0.482600
     19 N3          12.7700     2.9480     5.6980 nb         1 447      -0.740000
     20 C2          11.9430     3.8660     6.1060 ca         1 447       0.700900
     21 N1          10.6250     3.9450     5.8810 nb         1 447      -0.810000
     22 C6          10.0690     2.9940     5.1590 ca         1 447       0.745200
     23 NAY          8.7440     3.0380     4.8930 nu         1 447      -0.731300
     24 CBE          7.7580     3.9390     5.3040 ca         1 447       0.137600
     25 CAK          6.5090     3.8150     4.6920 ca         1 447      -0.134500
     26 CAI          5.4380     4.6200     5.0370 ca         1 447      -0.142000
     27 CAJ          7.9110     4.9170     6.2870 ca         1 447      -0.134500
     28 CAH          6.8400     5.7230     6.6300 ca         1 447      -0.142000
     29 CBD          5.5920     5.5940     6.0240 ca         1 447       0.051600
     30 NAX          4.5860     6.4680     6.4510 ns         1 447      -0.465100
     31 CBC          3.2760     6.4980     6.1040 c          1 447       0.687700
     32 OAB          2.7550     5.6940     5.3480 o          1 447      -0.583100
     33 CBF          2.4810     7.5960     6.7340 ca         1 447      -0.155600
     34 CAF          1.1090     7.3990     6.8870 ca         1 447      -0.089000
     35 CAD          0.3190     8.3850     7.4540 ca         1 447      -0.136500
     36 CAC          0.8860     9.5880     7.8560 ca         1 447      -0.104000
     37 CAE          2.2480     9.7990     7.6890 ca         1 447      -0.136500
     38 CAG          3.0430     8.8070     7.1330 ca         1 447      -0.089000
     39 HAT1        16.3820    -5.6230     4.8060 h1         1 447       0.036950
     40 HAT2        17.1120    -4.5170     3.6480 h1         1 447       0.036950
     41 HAQ1        17.4740    -6.1450     2.0170 h1         1 447       0.044450
     42 HAQ2        17.7410    -7.0500     3.5010 h1         1 447       0.044450
     43 HAR1        15.2330    -7.1250     0.6840 h1         1 447       0.044450
     44 HAR2        14.0510    -7.3790     1.9750 h1         1 447       0.044450
     45 HAU1        15.5540    -4.8490     1.2240 h1         1 447       0.036950
     46 HAU2        13.8580    -5.0820     1.6000 h1         1 447       0.036950
     47 HAS1        13.4850    -3.7560     3.5410 h1         1 447       0.062200
     48 HAS2        14.6960    -3.7010     4.8060 h1         1 447       0.062200
     49 HAO1        16.2830    -2.5400     3.2310 hc         1 447       0.052700
     50 HAO2        15.0580    -2.5650     1.9800 hc         1 447       0.052700
     51 HAP1        14.8150    -1.2030     4.7060 h1         1 447       0.042700
     52 HAP2        15.1990    -0.3900     3.1810 h1         1 447       0.042700
     53 HAM         14.1230     0.9790     4.7680 ha         1 447       0.158000
     54 HAN          9.3090     0.7460     3.6270 ha         1 447       0.139000
     55 HAA1        10.3930    -2.0420     0.9340 h1         1 447       0.037700
     56 HAA2        10.3110    -0.2700     0.9530 h1         1 447       0.037700
     57 HAA3        11.8840    -1.0930     1.0550 h1         1 447       0.037700
     58 H2          12.3580     4.6730     6.7020 h5         1 447       0.045100
     59 HAY          8.3950     2.3220     4.2780 hn         1 447       0.442800
     60 HAK          6.3620     3.0660     3.9230 ha         1 447       0.150000
     61 HAJ          8.8560     5.0560     6.7840 ha         1 447       0.150000
     62 HAI          4.4980     4.4770     4.5310 ha         1 447       0.148500
     63 HAH          6.9860     6.4730     7.3990 ha         1 447       0.148500
     64 HAX          4.8780     7.1160     7.1660 hn         1 447       0.319500
     65 HAF          0.6610     6.4670     6.5690 ha         1 447       0.142000
     66 HAG          4.0980     9.0080     6.9910 ha         1 447       0.142000
     67 HAD         -0.7430     8.2160     7.5810 ha         1 447       0.136500
     68 HAC          0.2680    10.3620     8.2930 ha         1 447       0.135000
     69 HAE          2.6930    10.7380     7.9880 ha         1 447       0.136500
@<TRIPOS>BOND
     1     1     2 1   
     2     1     6 1   
     3     1    39 1   
     4     1    40 1   
     5     2     3 1   
     6     2    41 1   
     7     2    42 1   
     8     3     4 1   
     9     4     5 1   
    10     4    43 1   
    11     4    44 1   
    12     5     6 1   
    13     5    45 1   
    14     5    46 1   
    15     6     7 1   
    16     7     8 1   
    17     7    47 1   
    18     7    48 1   
    19     8     9 1   
    20     8    49 1   
    21     8    50 1   
    22     9    10 1   
    23     9    51 1   
    24     9    52 1   
    25    10    11 1   
    26    11    12 ar  
    27    11    13 ar  
    28    12    18 ar  
    29    12    53 1   
    30    13    14 1   
    31    13    16 ar  
    32    14    15 1   
    33    15    55 1   
    34    15    56 1   
    35    15    57 1   
    36    16    17 ar  
    37    16    54 1   
    38    17    18 ar  
    39    17    22 ar  
    40    18    19 ar  
    41    19    20 ar  
    42    20    21 ar  
    43    20    58 1   
    44    21    22 ar  
    45    22    23 1   
    46    23    24 1   
    47    23    59 1   
    48    24    25 ar  
    49    24    27 ar  
    50    25    26 ar  
    51    25    60 1   
    52    26    29 ar  
    53    26    62 1   
    54    27    28 ar  
    55    27    61 1   
    56    28    29 ar  
    57    28    63 1   
    58    29    30 1   
    59    30    31 1   
    60    30    64 1   
    61    31    32 2   
    62    31    33 1   
    63    33    34 ar  
    64    33    38 ar  
    65    34    35 ar  
    66    34    65 1   
    67    35    36 ar  
    68    35    67 1   
    69    36    37 ar  
    70    36    68 1   
    71    37    38 ar  
    72    37    69 1   
    73    38    66 1   
@<TRIPOS>SUBSTRUCTURE
     1 447         1 TEMP              0 ****  ****    0 ROOT
