@<TRIPOS>MOLECULE
447
   69    73     1     0     0
SMALL
No Charge or Current Charge


@<TRIPOS>ATOM
      1 CAT         16.7250    -5.2600     3.4640 c6         1 447       0.144800
      2 CAQ         17.1800    -6.6870     3.0070 c6         1 447       0.154100
      3 OBA         16.0530    -7.5070     2.6080 os         1 447      -0.439000
      4 CAR         15.2580    -6.8960     1.5620 c6         1 447       0.154100
      5 CAU         14.7470    -5.4750     1.9790 c6         1 447       0.144800
      6 NBL         15.2480    -5.0450     3.3240 n3         1 447      -0.736600
      7 CAS         14.7550    -3.7200     3.7850 c3         1 447       0.183800
      8 CAO         15.2470    -2.5000     2.9660 c3         1 447      -0.118400
      9 CAP         14.6980    -1.1600     3.4900 c3         1 447       0.163600
     10 OBB         13.2710    -1.1700     3.3120 os         1 447      -0.334100
     11 CBH         12.4540    -0.1090     3.6650 ca         1 447       0.162100
     12 CAM         13.0040     1.0460     4.2680 ca         1 447      -0.208000
     13 CBG         11.0470    -0.1630     3.4280 ca         1 447       0.066100
     14 OAZ         10.3670    -1.2300     2.8480 os         1 447      -0.346100
     15 CAA         10.9820    -2.4590     2.4210 c3         1 447       0.148900
     16 CAN         10.2460     0.9330     3.7950 ca         1 447      -0.064000
     17 C5          10.8080     2.0830     4.3920 ca         1 447      -0.201000
     18 C4          12.1990     2.1360     4.6330 ca         1 447       0.089000
     19 N3          12.7540     3.2220     5.2080 nb         1 447      -0.214000
     20 C2          11.9320     4.2380     5.5340 ca         1 447       0.174900
     21 N1          10.6020     4.2850     5.3420 nb         1 447      -0.284000
     22 C6          10.0350     3.2050     4.7780 ca         1 447       0.416900
     23 NAY          8.6600     3.2710     4.5400 nu         1 447      -0.924900
     24 CBE          7.6280     4.0940     5.0090 ca         1 447       0.276000
     25 CAK          6.4760     4.2530     4.2210 ca         1 447      -0.116500
     26 CAI          5.4070     5.0580     4.6580 ca         1 447      -0.124000
     27 CAJ          7.6850     4.7320     6.2620 ca         1 447      -0.116500
     28 CAH          6.6190     5.5360     6.7040 ca         1 447      -0.124000
     29 CBD          5.4740     5.7150     5.9070 ca         1 447      -0.041000
     30 NAX          4.4350     6.5410     6.4220 ns         1 447      -0.139000
     31 CBC          3.2420     7.0050     5.8760 c          1 447       0.620700
     32 OAB          2.8860     6.7560     4.7290 o          1 447      -0.583100
     33 CBF          2.3860     7.8650     6.7930 ca         1 447      -0.155600
     34 CAF          1.1590     8.3840     6.3140 ca         1 447      -0.071000
     35 CAD          0.3450     9.1810     7.1360 ca         1 447      -0.118500
     36 CAC          0.7410     9.4740     8.4500 ca         1 447      -0.086000
     37 CAE          1.9530     8.9680     8.9410 ca         1 447      -0.118500
     38 CAG          2.7730     8.1690     8.1240 ca         1 447      -0.071000
     39 HAT1        17.0290    -5.1110     4.5100 h1         1 447       0.036950
     40 HAT2        17.2790    -4.5230     2.8650 h1         1 447       0.036950
     41 HAQ1        17.8760    -6.6000     2.1610 h1         1 447       0.044450
     42 HAQ2        17.7110    -7.1890     3.8280 h1         1 447       0.044450
     43 HAR1        15.8660    -6.8180     0.6490 h1         1 447       0.044450
     44 HAR2        14.4020    -7.5480     1.3400 h1         1 447       0.044450
     45 HAU1        15.0660    -4.7630     1.2040 h1         1 447       0.036950
     46 HAU2        13.6470    -5.4790     1.9710 h1         1 447       0.036950
     47 HAS1        13.6570    -3.7240     3.7740 h1         1 447       0.062200
     48 HAS2        15.0510    -3.5680     4.8320 h1         1 447       0.062200
     49 HAO1        16.3410    -2.4540     2.9960 hc         1 447       0.052700
     50 HAO2        14.9590    -2.6090     1.9140 hc         1 447       0.052700
     51 HAP1        14.9610    -1.0440     4.5500 h1         1 447       0.042700
     52 HAP2        15.1520    -0.3370     2.9230 h1         1 447       0.042700
     53 HAM         14.0690     1.1190     4.4650 ha         1 447       0.140000
     54 HAN          9.1770     0.8640     3.6130 ha         1 447       0.121000
     55 HAA1        10.2250    -3.1340     2.0030 h1         1 447       0.037700
     56 HAA2        11.7310    -2.2730     1.6400 h1         1 447       0.037700
     57 HAA3        11.4590    -2.9720     3.2650 h1         1 447       0.037700
     58 H2          12.3920     5.1110     5.9940 h5         1 447       0.045100
     59 HAY          8.3640     2.6290     3.8100 hn         1 447       0.498000
     60 HAK          6.4070     3.7560     3.2570 ha         1 447       0.132000
     61 HAJ          8.5460     4.5960     6.9090 ha         1 447       0.132000
     62 HAI          4.5390     5.1490     4.0140 ha         1 447       0.130500
     63 HAH          6.6870     6.0200     7.6770 ha         1 447       0.130500
     64 HAX          4.5980     6.8460     7.3710 hn         1 447       0.153000
     65 HAF          0.8300     8.1710     5.2990 ha         1 447       0.124000
     66 HAG          3.7040     7.7970     8.5440 ha         1 447       0.124000
     67 HAD         -0.5950     9.5720     6.7530 ha         1 447       0.118500
     68 HAC          0.1090    10.0920     9.0860 ha         1 447       0.117000
     69 HAE          2.2610     9.1940     9.9600 ha         1 447       0.118500
@<TRIPOS>BOND
     1     1     2 1   
     2     1     6 1   
     3     1    39 1   
     4     1    40 1   
     5     2     3 1   
     6     2    41 1   
     7     2    42 1   
     8     3     4 1   
     9     4     5 1   
    10     4    43 1   
    11     4    44 1   
    12     5     6 1   
    13     5    45 1   
    14     5    46 1   
    15     6     7 1   
    16     7     8 1   
    17     7    47 1   
    18     7    48 1   
    19     8     9 1   
    20     8    49 1   
    21     8    50 1   
    22     9    10 1   
    23     9    51 1   
    24     9    52 1   
    25    10    11 1   
    26    11    12 ar  
    27    11    13 ar  
    28    12    18 ar  
    29    12    53 1   
    30    13    14 1   
    31    13    16 ar  
    32    14    15 1   
    33    15    55 1   
    34    15    56 1   
    35    15    57 1   
    36    16    17 ar  
    37    16    54 1   
    38    17    18 ar  
    39    17    22 ar  
    40    18    19 ar  
    41    19    20 ar  
    42    20    21 ar  
    43    20    58 1   
    44    21    22 ar  
    45    22    23 1   
    46    23    24 1   
    47    23    59 1   
    48    24    25 ar  
    49    24    27 ar  
    50    25    26 ar  
    51    25    60 1   
    52    26    29 ar  
    53    26    62 1   
    54    27    28 ar  
    55    27    61 1   
    56    28    29 ar  
    57    28    63 1   
    58    29    30 1   
    59    30    31 1   
    60    30    64 1   
    61    31    32 2   
    62    31    33 1   
    63    33    34 ar  
    64    33    38 ar  
    65    34    35 ar  
    66    34    65 1   
    67    35    36 ar  
    68    35    67 1   
    69    36    37 ar  
    70    36    68 1   
    71    37    38 ar  
    72    37    69 1   
    73    38    66 1   
@<TRIPOS>SUBSTRUCTURE
     1 447         1 TEMP              0 ****  ****    0 ROOT
