@<TRIPOS>MOLECULE
448
   46    48     1     0     0
SMALL
No Charge or Current Charge


@<TRIPOS>ATOM
      1 F9          -8.6600    -1.0430    -0.7160 f          1 448      -0.150000
      2 C6          -7.4340    -0.7190    -0.2440 ca         1 448       0.165000
      3 C1          -6.4480    -1.7120    -0.1420 ca         1 448      -0.169000
      4 C2          -5.1750    -1.3820     0.3480 ca         1 448       0.190000
      5 F10         -4.2390    -2.3530     0.4450 f          1 448      -0.166000
      6 C5          -7.1480     0.6030     0.1450 ca         1 448       0.120000
      7 F8          -8.0960     1.5640     0.0510 f          1 448      -0.155000
      8 C4          -5.8730     0.9340     0.6350 ca         1 448      -0.113000
      9 C3          -4.8730    -0.0570     0.7370 ca         1 448      -0.115300
     10 C11         -3.4870     0.3090     1.2760 c3         1 448      -0.070100
     11 C12         -2.3900     0.3560     0.1830 c3         1 448       0.176500
     12 N20         -2.7570     1.3340    -0.8580 n8         1 448      -0.992200
     13 C15         -1.0030     0.7050     0.7640 c3         1 448      -0.148400
     14 C16          0.1920     0.3680    -0.1470 c          1 448       0.607100
     15 O22          0.1100    -0.5360    -0.9660 o          1 448      -0.540100
     16 N19          1.3890     1.1250     0.0150 n          1 448      -0.397800
     17 C25          1.8050     1.6580     1.3530 c6         1 448       0.063000
     18 C26          2.9100     0.7730     1.9920 c6         1 448       0.050600
     19 C29          2.5330     1.1790    -0.9760 c6         1 448       0.079400
     20 C34          2.2860     0.6020    -2.4020 c3         1 448      -0.075100
     21 C28          3.8000     0.6010    -0.3580 cc         1 448       0.404800
     22 N27          3.9570     0.4530     1.0000 na         1 448      -0.052700
     23 N39          5.1810    -0.0450     1.3070 nc         1 448      -0.475800
     24 N41          4.9230     0.2230    -0.9450 nd         1 448      -0.639000
     25 C40          5.7380    -0.1740     0.1070 cd         1 448       0.416300
     26 C41          7.1630    -0.7070    -0.0710 c3         1 448       0.310700
     27 F29          7.5200    -0.8160    -1.3740 f          1 448      -0.099333
     28 F27          8.0800     0.0990     0.5170 f          1 448      -0.099333
     29 F28          7.3150    -1.9370     0.4760 f          1 448      -0.099333
     30 H1          -6.6700    -2.7330    -0.4390 ha         1 448       0.158000
     31 H4          -5.6670     1.9600     0.9330 ha         1 448       0.136000
     32 H111        -3.5210     1.2760     1.7930 hc         1 448       0.058200
     33 H112        -3.1930    -0.4220     2.0400 hc         1 448       0.058200
     34 H12         -2.3390    -0.6450    -0.2760 h1         1 448       0.092700
     35 H201        -3.7050     1.1170    -1.1870 hn         1 448       0.399000
     36 H202        -2.8650     2.2570    -0.4240 hn         1 448       0.399000
     37 H151        -0.9580     1.7550     1.0720 hc         1 448       0.058200
     38 H152        -0.8370     0.1570     1.6990 hc         1 448       0.058200
     39 H251         2.1970     2.6770     1.2190 h1         1 448       0.073700
     40 H252         0.9660     1.7350     2.0550 h1         1 448       0.073700
     41 H261         3.3570     1.2880     2.8530 h1         1 448       0.078200
     42 H262         2.4670    -0.1680     2.3470 h1         1 448       0.078200
     43 H29          2.7260     2.2480    -1.1410 h1         1 448       0.068700
     44 H341         1.3620     0.9980    -2.8380 hc         1 448       0.062033
     45 H342         3.1050     0.8750    -3.0780 hc         1 448       0.062033
     46 H343         2.2280    -0.4930    -2.3950 hc         1 448       0.062033
@<TRIPOS>BOND
     1     1     2 1   
     2     2     3 ar  
     3     2     6 ar  
     4     3     4 ar  
     5     3    30 1   
     6     4     5 1   
     7     4     9 ar  
     8     6     7 1   
     9     6     8 ar  
    10     8     9 ar  
    11     8    31 1   
    12     9    10 1   
    13    10    11 1   
    14    10    32 1   
    15    10    33 1   
    16    11    12 1   
    17    11    13 1   
    18    11    34 1   
    19    12    35 1   
    20    12    36 1   
    21    13    14 1   
    22    13    37 1   
    23    13    38 1   
    24    14    15 2   
    25    14    16 1   
    26    16    17 1   
    27    16    19 1   
    28    17    18 1   
    29    17    39 1   
    30    17    40 1   
    31    18    22 1   
    32    18    41 1   
    33    18    42 1   
    34    19    20 1   
    35    19    21 1   
    36    19    43 1   
    37    20    44 1   
    38    20    45 1   
    39    20    46 1   
    40    21    22 1   
    41    21    24 2   
    42    22    23 1   
    43    23    25 2   
    44    24    25 1   
    45    25    26 1   
    46    26    27 1   
    47    26    28 1   
    48    26    29 1   
@<TRIPOS>SUBSTRUCTURE
     1 448         1 TEMP              0 ****  ****    0 ROOT
