@<TRIPOS>MOLECULE
448
   46    48     1     0     0
SMALL
bcc


@<TRIPOS>ATOM
      1 F9          -8.1690    -1.4830    -0.5970 f          1 448      -0.114900
      2 C6          -6.9860    -1.0740    -0.1350 ca         1 448       0.129900
      3 C1          -6.0210    -1.9970     0.2120 ca         1 448      -0.187000
      4 C2          -4.8130    -1.5270     0.6900 ca         1 448       0.154900
      5 F10         -3.8790    -2.4300     1.0240 f          1 448      -0.130900
      6 C5          -6.7370     0.2800    -0.0010 ca         1 448       0.084900
      7 F8          -7.6870     1.1570    -0.3450 f          1 448      -0.119900
      8 C4          -5.5230     0.7220     0.4800 ca         1 448      -0.131000
      9 C3          -4.5250    -0.1790     0.8460 ca         1 448      -0.115300
     10 C11         -3.1890     0.2950     1.3330 c3         1 448      -0.070100
     11 C12         -2.1380     0.3390     0.2050 c3         1 448       0.176500
     12 N20         -2.4990     1.1780    -0.9210 n8         1 448      -0.881800
     13 C15         -0.8140     0.8320     0.7770 c3         1 448      -0.148400
     14 C16          0.3260     0.6890    -0.2130 c          1 448       0.674100
     15 O22          0.3310    -0.1930    -1.0490 o          1 448      -0.540100
     16 N19          1.3350     1.6160    -0.1190 n          1 448      -0.464800
     17 C25          1.7380     2.1190     1.1890 c6         1 448       0.063000
     18 C26          2.6110     1.0950     1.9120 c6         1 448       0.021300
     19 C29          2.4960     1.5690    -1.0130 c6         1 448       0.079400
     20 C34          2.2610     1.2850    -2.4870 c3         1 448      -0.075100
     21 C28          3.5110     0.6720    -0.3780 cc         1 448       0.404800
     22 N27          3.5380     0.5190     0.9540 na         1 448      -0.023400
     23 N39          4.5240    -0.3010     1.3040 nc         1 448      -0.475800
     24 N41          4.4790    -0.0280    -0.9220 nd         1 448      -0.639000
     25 C40          5.0600    -0.5970     0.1490 cd         1 448       0.416300
     26 C41          6.2340    -1.5040     0.0200 c3         1 448       0.674600
     27 F29          7.2610    -0.8860    -0.5720 f          1 448      -0.220633
     28 F27          6.6460    -1.9360     1.2100 f          1 448      -0.220633
     29 F28          5.9420    -2.5730    -0.7270 f          1 448      -0.220633
     30 H1          -6.2100    -3.0580     0.1120 ha         1 448       0.176000
     31 H4          -5.3540     1.7860     0.5850 ha         1 448       0.154000
     32 H111        -3.3030     1.2980     1.7550 hc         1 448       0.058200
     33 H112        -2.8290    -0.3430     2.1430 hc         1 448       0.058200
     34 H12         -2.0010    -0.6770    -0.1720 h1         1 448       0.092700
     35 H201        -3.3210     0.8160    -1.3870 hn         1 448       0.343800
     36 H202        -2.7430     2.1080    -0.5990 hn         1 448       0.343800
     37 H151        -0.9340     1.8710     1.0940 hc         1 448       0.058200
     38 H152        -0.5580     0.2640     1.6770 hc         1 448       0.058200
     39 H251         2.2890     3.0490     1.0420 h1         1 448       0.073700
     40 H252         0.8830     2.3600     1.8140 h1         1 448       0.073700
     41 H261         3.1740     1.5670     2.7150 h1         1 448       0.078200
     42 H262         2.0100     0.2900     2.3400 h1         1 448       0.078200
     43 H29          2.9100     2.5840    -0.9720 h1         1 448       0.068700
     44 H341         1.4290     1.8870    -2.8510 hc         1 448       0.062033
     45 H342         3.1510     1.5900    -3.0350 hc         1 448       0.062033
     46 H343         2.0640     0.2420    -2.7030 hc         1 448       0.062033
@<TRIPOS>BOND
     1     1     2 1   
     2     2     3 ar  
     3     2     6 ar  
     4     3     4 ar  
     5     3    30 1   
     6     4     5 1   
     7     4     9 ar  
     8     6     7 1   
     9     6     8 ar  
    10     8     9 ar  
    11     8    31 1   
    12     9    10 1   
    13    10    11 1   
    14    10    32 1   
    15    10    33 1   
    16    11    12 1   
    17    11    13 1   
    18    11    34 1   
    19    12    35 1   
    20    12    36 1   
    21    13    14 1   
    22    13    37 1   
    23    13    38 1   
    24    14    15 2   
    25    14    16 1   
    26    16    17 1   
    27    16    19 1   
    28    17    18 1   
    29    17    39 1   
    30    17    40 1   
    31    18    22 1   
    32    18    41 1   
    33    18    42 1   
    34    19    20 1   
    35    19    21 1   
    36    19    43 1   
    37    20    44 1   
    38    20    45 1   
    39    20    46 1   
    40    21    22 1   
    41    21    24 2   
    42    22    23 1   
    43    23    25 2   
    44    24    25 1   
    45    25    26 1   
    46    26    27 1   
    47    26    28 1   
    48    26    29 1   
@<TRIPOS>SUBSTRUCTURE
     1 448         1 TEMP              0 ****  ****    0 ROOT
