@<TRIPOS>MOLECULE
449
   26    26     1     0     0
SMALL
bcc


@<TRIPOS>ATOM
      1 CAA          0.2050    -1.2150    -0.3130 c6         1 449      -0.076900
      2 CAB         -1.2650    -1.1000    -0.6650 c6         1 449       0.129300
      3 CAC         -1.2230     1.3030    -0.1440 c6         1 449       0.129300
      4 CAD          0.2430     1.2180     0.2250 c6         1 449      -0.076900
      5 CAE          0.9490     0.0980    -0.5280 c6         1 449      -0.210700
      6 CAH          2.4510     0.0000    -0.1800 c          1 449       0.936600
      7 OAI          3.0170     1.0600     0.1510 o          1 449      -0.803300
      8 OAJ          2.9810    -1.1230    -0.2870 o          1 449      -0.803300
      9 NAK         -1.9630     0.0120     0.0720 n4         1 449      -0.608800
     10 HAA          0.3300    -1.5650     0.7140 hc         1 449       0.083200
     11 HAAA         0.6170    -1.9990    -0.9480 hc         1 449       0.083200
     12 HAB         -1.3890    -0.8840    -1.7280 hx         1 449       0.070950
     13 HABA        -1.8090    -2.0170    -0.4390 hx         1 449       0.070950
     14 HAC         -1.7460     2.0680     0.4290 hx         1 449       0.070950
     15 HACA        -1.3340     1.5440    -1.2030 hx         1 449       0.070950
     16 HAD          0.6810     2.1840    -0.0250 hc         1 449       0.083200
     17 HADA         0.3650     1.1010     1.3050 hc         1 449       0.083200
     18 HAE          0.8920     0.3370    -1.6000 hc         1 449       0.042700
     19 HAF         -3.8780    -0.7780    -0.3400 hx         1 449       0.086033
     20 HAFA        -3.8520     0.9540     0.0620 hx         1 449       0.086033
     21 HAFB        -3.2810     0.4020    -1.5280 hx         1 449       0.086033
     22 HAG         -1.0790    -0.4730     1.9460 hx         1 449       0.086033
     23 HAGA        -2.5370     0.5300     2.0330 hx         1 449       0.086033
     24 HAGB        -2.6670    -1.1980     1.6440 hx         1 449       0.086033
     25 CAF         -3.3390     0.1570    -0.4710 c3         1 449       0.104600
     26 CAG         -2.0630    -0.3030     1.5220 c3         1 449       0.104600
@<TRIPOS>BOND
     1     1     2 1   
     2     1     5 1   
     3     1    10 1   
     4     1    11 1   
     5     2     9 1   
     6     2    12 1   
     7     2    13 1   
     8     3     4 1   
     9     3     9 1   
    10     3    14 1   
    11     3    15 1   
    12     4     5 1   
    13     4    16 1   
    14     4    17 1   
    15     5     6 1   
    16     5    18 1   
    17     6     7 1   
    18     6     8 1   
    19     9    25 1   
    20     9    26 1   
    21    19    25 1   
    22    20    25 1   
    23    21    25 1   
    24    22    26 1   
    25    23    26 1   
    26    24    26 1   
@<TRIPOS>SUBSTRUCTURE
     1 449         1 TEMP              0 ****  ****    0 ROOT
