@<TRIPOS>MOLECULE
449
   26    26     1     0     0
SMALL
No Charge or Current Charge


@<TRIPOS>ATOM
      1 CAA          0.2380    -1.2040    -0.4540 c6         1 449      -0.076900
      2 CAB         -1.2610    -1.0480    -0.7980 c6         1 449       0.101100
      3 CAC         -1.2240     1.3450     0.0000 c6         1 449       0.101100
      4 CAD          0.2760     1.2210     0.3550 c6         1 449      -0.076900
      5 CAE          0.9780     0.1610    -0.5410 c6         1 449      -0.210700
      6 CAH          2.4850     0.0300    -0.2210 c          1 449       0.726000
      7 OAI          3.2820     0.3120    -1.1030 o          1 449      -0.698000
      8 OAJ          2.8080    -0.3470     0.8960 o          1 449      -0.698000
      9 NAK         -1.9950     0.0020     0.0750 n4         1 449      -0.496000
     10 HAA          0.3430    -1.6320     0.5520 hc         1 449       0.083200
     11 HAAA         0.6960    -1.9250    -1.1440 hc         1 449       0.083200
     12 HAB         -1.3780    -0.7180    -1.8350 hx         1 449       0.070950
     13 HABA        -1.7980    -1.9940    -0.6810 hx         1 449       0.070950
     14 HAC         -1.7340     2.0460     0.6670 hx         1 449       0.070950
     15 HACA        -1.3400     1.7070    -1.0260 hx         1 449       0.070950
     16 HAD          0.7610     2.1980     0.2310 hc         1 449       0.083200
     17 HADA         0.3840     0.9560     1.4150 hc         1 449       0.083200
     18 HAE          0.9050     0.5090    -1.5810 hc         1 449       0.042700
     19 HAF         -3.9540    -0.7430    -0.4210 hx         1 449       0.086033
     20 HAFA        -3.9270     0.9510     0.1440 hx         1 449       0.086033
     21 HAFB        -3.3570     0.5490    -1.5000 hx         1 449       0.086033
     22 HAG         -1.0960    -0.6320     1.9330 hx         1 449       0.086033
     23 HAGA        -2.6230     0.2710     2.1210 hx         1 449       0.086033
     24 HAGB        -2.6500    -1.4230     1.5560 hx         1 449       0.086033
     25 CAF         -3.4140     0.2050    -0.4650 c3         1 449       0.076400
     26 CAG         -2.0980    -0.4810     1.5300 c3         1 449       0.076400
@<TRIPOS>BOND
     1     1     2 1   
     2     1     5 1   
     3     1    10 1   
     4     1    11 1   
     5     2     9 1   
     6     2    12 1   
     7     2    13 1   
     8     3     4 1   
     9     3     9 1   
    10     3    14 1   
    11     3    15 1   
    12     4     5 1   
    13     4    16 1   
    14     4    17 1   
    15     5     6 1   
    16     5    18 1   
    17     6     7 1   
    18     6     8 1   
    19     9    25 1   
    20     9    26 1   
    21    19    25 1   
    22    20    25 1   
    23    21    25 1   
    24    22    26 1   
    25    23    26 1   
    26    24    26 1   
@<TRIPOS>SUBSTRUCTURE
     1 449         1 TEMP              0 ****  ****    0 ROOT
