@<TRIPOS>MOLECULE
44A
   30    32     1     0     0
SMALL
abcg2


@<TRIPOS>ATOM
      1 N1          -4.3830    -0.4640    -0.1950 nb         1 44A      -0.318000
      2 C2          -3.6200    -1.5010     0.1410 ca         1 44A       0.154900
      3 N3          -2.3260    -1.5160     0.4110 nb         1 44A      -0.208000
      4 C4          -1.7910    -0.2990     0.3160 ca         1 44A       0.103500
      5 C5          -2.4530     0.8710    -0.0220 ca         1 44A      -0.087600
      6 C6          -3.8290     0.7510    -0.2870 ca         1 44A       0.432900
      7 N6          -4.5910     1.7900    -0.6400 nv         1 44A      -1.072900
      8 N7          -1.5930     1.9360    -0.0130 nc         1 44A      -0.592100
      9 C8          -0.4430     1.4230     0.3210 cd         1 44A       0.449700
     10 N9          -0.4960     0.0700     0.5280 na         1 44A      -0.298300
     11 OAL          2.9110     2.2890     0.5640 o          1 44A      -0.714000
     12 OAN          2.9780    -1.4160    -1.7010 oh         1 44A      -0.749000
     13 OAO          1.6840    -2.8210     0.3130 oh         1 44A      -0.724000
     14 OBV          1.6790    -0.0480     1.3280 os         1 44A      -0.419000
     15 CCC          3.3080     1.2680    -0.0140 c          1 44A       0.721000
     16 CCK          2.0680    -0.7450    -0.8820 c5         1 44A       0.118300
     17 CCL          1.0630    -1.6900    -0.2350 c5         1 44A       0.124300
     18 CCM          2.7110    -0.0930     0.3480 c5         1 44A      -0.023700
     19 CCN          0.5910    -0.8190     0.9330 c5         1 44A       0.309300
     20 H2          -4.1310    -2.4560     0.1980 h5         1 44A       0.031100
     21 HN6         -5.5880     1.6770    -0.7100 hn         1 44A       0.495000
     22 HN6A        -4.2260     2.7260    -0.6090 hn         1 44A       0.495000
     23 H8           0.4770     1.9770     0.4380 h5         1 44A       0.124800
     24 HOAN         3.7190    -0.8040    -1.8200 ho         1 44A       0.557000
     25 HOAO         2.3800    -3.1050    -0.2910 ho         1 44A       0.524000
     26 O5           4.1670     1.1820    -0.9200 o          1 44A      -0.714000
     27 HCK          1.5100     0.0120    -1.4540 h1         1 44A       0.055700
     28 HCL          0.2380    -1.9610    -0.9050 h1         1 44A       0.065700
     29 HCM          3.5200    -0.7390     0.7140 h1         1 44A       0.056700
     30 HCN          0.2240    -1.4240     1.7660 h2         1 44A       0.098700
@<TRIPOS>BOND
     1     1     2 ar  
     2     1     6 ar  
     3     2     3 ar  
     4     2    20 1   
     5     3     4 ar  
     6     4     5 ar  
     7     4    10 1   
     8     5     6 ar  
     9     5     8 1   
    10     6     7 1   
    11     7    21 1   
    12     7    22 1   
    13     8     9 2   
    14     9    10 1   
    15     9    23 1   
    16    10    19 1   
    17    11    15 1   
    18    12    16 1   
    19    12    24 1   
    20    13    17 1   
    21    13    25 1   
    22    14    18 1   
    23    14    19 1   
    24    15    18 1   
    25    15    26 1   
    26    16    17 1   
    27    16    18 1   
    28    16    27 1   
    29    17    19 1   
    30    17    28 1   
    31    18    29 1   
    32    19    30 1   
@<TRIPOS>SUBSTRUCTURE
     1 44A         1 TEMP              0 ****  ****    0 ROOT
