@<TRIPOS>MOLECULE
44A
   30    32     1     0     0
SMALL
No Charge or Current Charge


@<TRIPOS>ATOM
      1 N1          -4.2440    -0.3410    -0.7460 nb         1 44A      -0.318000
      2 C2          -3.4610    -1.4280    -0.5550 ca         1 44A       0.154900
      3 N3          -2.1970    -1.4400    -0.0720 nb         1 44A      -0.208000
      4 C4          -1.6710    -0.2390     0.2480 ca         1 44A       0.103500
      5 C5          -2.3850     0.9240     0.0990 ca         1 44A      -0.087600
      6 C6          -3.6980     0.8390    -0.4170 ca         1 44A       0.432900
      7 N6          -4.4890     1.9310    -0.5970 nv         1 44A      -1.072900
      8 N7          -1.6740     2.0420     0.5170 nc         1 44A      -0.592100
      9 C8          -0.5060     1.4980     0.9190 cd         1 44A       0.449700
     10 N9          -0.4400     0.1000     0.7570 na         1 44A      -0.298300
     11 OAL          2.4550     2.3610    -0.0100 o          1 44A      -0.714000
     12 OAN          2.9130    -1.8460    -1.5360 oh         1 44A      -0.749000
     13 OAO          1.9210    -2.9190     0.7060 oh         1 44A      -0.724000
     14 OBV          1.8540     0.0120     1.3840 os         1 44A      -0.419000
     15 CCC          2.9170     1.3440    -0.5090 c          1 44A       0.721000
     16 CCK          1.9860    -1.0170    -0.8120 c5         1 44A       0.118300
     17 CCL          1.1110    -1.8770     0.1410 c5         1 44A       0.124300
     18 CCM          2.6980    -0.0460     0.1860 c5         1 44A      -0.023700
     19 CCN          0.6610    -0.7810     1.1670 c5         1 44A       0.309300
     20 H2          -3.8920    -2.3930    -0.8170 h5         1 44A       0.031100
     21 HN6         -5.4910     1.7840    -0.6820 hn         1 44A       0.495000
     22 HN6A        -4.1870     2.7970    -0.1560 hn         1 44A       0.495000
     23 H8           0.3210     2.0500     1.3520 h5         1 44A       0.124800
     24 HOAN         3.4220    -1.2440    -2.1350 ho         1 44A       0.557000
     25 HOAO         2.6570    -2.9760     0.0430 ho         1 44A       0.524000
     26 O5           3.5620     1.3770    -1.5490 o          1 44A      -0.714000
     27 HCK          1.3410    -0.4560    -1.5050 h1         1 44A       0.055700
     28 HCL          0.2570    -2.3130    -0.3940 h1         1 44A       0.065700
     29 HCM          3.6820    -0.4300     0.4860 h1         1 44A       0.056700
     30 HCN          0.3340    -1.2430     2.1070 h2         1 44A       0.098700
@<TRIPOS>BOND
     1     1     2 ar  
     2     1     6 ar  
     3     2     3 ar  
     4     2    20 1   
     5     3     4 ar  
     6     4     5 ar  
     7     4    10 1   
     8     5     6 ar  
     9     5     8 1   
    10     6     7 1   
    11     7    21 1   
    12     7    22 1   
    13     8     9 2   
    14     9    10 1   
    15     9    23 1   
    16    10    19 1   
    17    11    15 1   
    18    12    16 1   
    19    12    24 1   
    20    13    17 1   
    21    13    25 1   
    22    14    18 1   
    23    14    19 1   
    24    15    18 1   
    25    15    26 1   
    26    16    17 1   
    27    16    18 1   
    28    16    27 1   
    29    17    19 1   
    30    17    28 1   
    31    18    29 1   
    32    19    30 1   
@<TRIPOS>SUBSTRUCTURE
     1 44A         1 TEMP              0 ****  ****    0 ROOT
