@<TRIPOS>MOLECULE
44B
   30    30     1     0     0
SMALL
No Charge or Current Charge


@<TRIPOS>ATOM
      1 F35          1.9850    -0.1990     4.1140 f          1 44B      -0.099333
      2 C34          1.5110    -0.5190     2.8850 c3         1 44B       0.301500
      3 F37          1.1310    -1.8170     2.9380 f          1 44B      -0.099333
      4 F36          2.5570    -0.4320     2.0290 f          1 44B      -0.099333
      5 C33          0.3320     0.4510     2.4440 c3         1 44B       0.124300
      6 O42          0.7950     1.8060     2.6610 oh         1 44B      -0.623000
      7 C38         -0.9620     0.2080     3.3210 c3         1 44B       0.301500
      8 F39         -1.5150    -1.0020     3.0660 f          1 44B      -0.099333
      9 F40         -0.6970     0.2640     4.6480 f          1 44B      -0.099333
     10 F41         -1.9150     1.1390     3.0690 f          1 44B      -0.099333
     11 C26         -0.0440     0.3560     0.9330 ca         1 44B      -0.211300
     12 C27          0.2050    -0.8020     0.1530 ca         1 44B      -0.024500
     13 C28         -0.1650    -0.8510    -1.2020 ca         1 44B      -0.188500
     14 C25         -0.7010     1.4430     0.3050 ca         1 44B      -0.024500
     15 C24         -1.0680     1.3830    -1.0500 ca         1 44B      -0.188500
     16 C23         -0.7930     0.2430    -1.8100 ca         1 44B       0.363000
     17 N15         -1.1700     0.2100    -3.1530 nu         1 44B      -0.978200
     18 C16         -0.4340    -0.4760    -4.2590 c3         1 44B       0.168800
     19 C19          0.9730     0.1210    -4.5760 c3         1 44B       0.271000
     20 F22          1.5150    -0.4930    -5.6530 f          1 44B      -0.112667
     21 F21          0.8940     1.4440    -4.8520 f          1 44B      -0.112667
     22 F20          1.8280    -0.0400    -3.5390 f          1 44B      -0.112667
     23 H42          1.4640     1.9950     1.9670 ho         1 44B       0.479000
     24 H27          0.6800    -1.6820     0.5730 ha         1 44B       0.126500
     25 H28          0.0360    -1.7510    -1.7720 ha         1 44B       0.120000
     26 H25         -0.9390     2.3450     0.8650 ha         1 44B       0.126500
     27 H24         -1.5660     2.2340    -1.5060 ha         1 44B       0.120000
     28 H15         -1.7410     1.0110    -3.4360 hn         1 44B       0.502000
     29 H161        -1.0290    -0.4230    -5.1830 h1         1 44B       0.084200
     30 H162        -0.3140    -1.5450    -4.0340 h1         1 44B       0.084200
@<TRIPOS>BOND
     1     1     2 1   
     2     2     3 1   
     3     2     4 1   
     4     2     5 1   
     5     5     6 1   
     6     5     7 1   
     7     5    11 1   
     8     6    23 1   
     9     7     8 1   
    10     7     9 1   
    11     7    10 1   
    12    11    12 ar  
    13    11    14 ar  
    14    12    13 ar  
    15    12    24 1   
    16    13    16 ar  
    17    13    25 1   
    18    14    15 ar  
    19    14    26 1   
    20    15    16 ar  
    21    15    27 1   
    22    16    17 1   
    23    17    18 1   
    24    17    28 1   
    25    18    19 1   
    26    18    29 1   
    27    18    30 1   
    28    19    20 1   
    29    19    21 1   
    30    19    22 1   
@<TRIPOS>SUBSTRUCTURE
     1 44B         1 TEMP              0 ****  ****    0 ROOT
