@<TRIPOS>MOLECULE
44B
   30    30     1     0     0
SMALL
bcc


@<TRIPOS>ATOM
      1 F35          1.8040    -0.0680     4.1930 f          1 44B      -0.220633
      2 C34          1.5320    -0.2690     2.9060 c3         1 44B       0.665400
      3 F37          1.5310    -1.5910     2.7130 f          1 44B      -0.220633
      4 F36          2.5450     0.2420     2.2030 f          1 44B      -0.220633
      5 C33          0.2080     0.4290     2.4890 c3         1 44B       0.101100
      6 O42          0.2320     1.7050     3.0430 oh         1 44B      -0.560800
      7 C38         -1.0160    -0.2440     3.1480 c3         1 44B       0.665400
      8 F39         -1.1910    -1.4900     2.7080 f          1 44B      -0.220633
      9 F40         -0.9180    -0.3000     4.4780 f          1 44B      -0.220633
     10 F41         -2.1190     0.4430     2.8610 f          1 44B      -0.220633
     11 C26          0.0080     0.4400     0.9810 ca         1 44B      -0.211300
     12 C27          0.3000    -0.6410     0.1510 ca         1 44B      -0.042500
     13 C28          0.0810    -0.5900    -1.2140 ca         1 44B      -0.206500
     14 C25         -0.5460     1.5730     0.3830 ca         1 44B      -0.042500
     15 C24         -0.7740     1.6330    -0.9760 ca         1 44B      -0.206500
     16 C23         -0.4660     0.5520    -1.8130 ca         1 44B       0.224600
     17 N15         -0.7200     0.6510    -3.1510 nu         1 44B      -0.784600
     18 C16         -0.5860    -0.4030    -4.1050 c3         1 44B       0.168800
     19 C19          0.7610    -0.3820    -4.7980 c3         1 44B       0.634900
     20 F22          0.8660    -1.3820    -5.6840 f          1 44B      -0.233967
     21 F21          0.9600     0.7620    -5.4670 f          1 44B      -0.233967
     22 F20          1.7810    -0.5040    -3.9380 f          1 44B      -0.233967
     23 H42          0.7890     2.2870     2.5100 ho         1 44B       0.440000
     24 H27          0.7130    -1.5600     0.5390 ha         1 44B       0.144500
     25 H28          0.3480    -1.4580    -1.8000 ha         1 44B       0.138000
     26 H25         -0.8230     2.4360     0.9730 ha         1 44B       0.144500
     27 H24         -1.2060     2.5320    -1.4000 ha         1 44B       0.138000
     28 H15         -1.1500     1.5010    -3.4730 hn         1 44B       0.446800
     29 H161        -1.3590    -0.2980    -4.8680 h1         1 44B       0.084200
     30 H162        -0.7330    -1.3830    -3.6470 h1         1 44B       0.084200
@<TRIPOS>BOND
     1     1     2 1   
     2     2     3 1   
     3     2     4 1   
     4     2     5 1   
     5     5     6 1   
     6     5     7 1   
     7     5    11 1   
     8     6    23 1   
     9     7     8 1   
    10     7     9 1   
    11     7    10 1   
    12    11    12 ar  
    13    11    14 ar  
    14    12    13 ar  
    15    12    24 1   
    16    13    16 ar  
    17    13    25 1   
    18    14    15 ar  
    19    14    26 1   
    20    15    16 ar  
    21    15    27 1   
    22    16    17 1   
    23    17    18 1   
    24    17    28 1   
    25    18    19 1   
    26    18    29 1   
    27    18    30 1   
    28    19    20 1   
    29    19    21 1   
    30    19    22 1   
@<TRIPOS>SUBSTRUCTURE
     1 44B         1 TEMP              0 ****  ****    0 ROOT
