@<TRIPOS>MOLECULE
44C
   62    65     1     0     0
SMALL
No Charge or Current Charge


@<TRIPOS>ATOM
      1 C1          22.3200    41.2770    25.9600 ca         1 44C      -0.093000
      2 C2          21.9890    41.0990    24.6050 ca         1 44C      -0.128500
      3 C3          21.5020    42.1710    23.8190 cp         1 44C      -0.074000
      4 C4          21.3610    43.4320    24.4470 ca         1 44C      -0.128500
      5 C5          21.6900    43.6150    25.8020 ca         1 44C      -0.093000
      6 C6          22.1750    42.5390    26.5800 ca         1 44C      -0.124600
      7 C7          21.1500    41.9790    22.3740 cp         1 44C      -0.034000
      8 C8          20.5980    40.7580    21.9110 ca         1 44C      -0.076000
      9 C9          20.2670    40.5790    20.5560 ca         1 44C      -0.178500
     10 C10         20.4800    41.6100    19.6300 ca         1 44C       0.127100
     11 C11         21.0290    42.8330    20.0690 ca         1 44C      -0.178500
     12 C12         21.3580    43.0110    21.4250 ca         1 44C      -0.076000
     13 C13         22.5330    42.7350    28.0470 c          1 44C       0.712600
     14 O14         22.9470    41.7750    28.6830 o          1 44C      -0.723000
     15 O15         22.3940    43.8450    28.5420 o          1 44C      -0.723000
     16 O16         20.1380    41.3770    18.3150 os         1 44C      -0.360100
     17 C17         20.3270    42.3650    17.2860 c3         1 44C       0.164600
     18 C18         19.8570    41.7650    15.9430 c3         1 44C      -0.066400
     19 C19         22.1380    40.6170    15.3650 c3         1 44C       0.164600
     20 C20         20.6000    40.4750    15.5030 c3         1 44C      -0.102400
     21 O21         22.4470    41.7100    14.4750 os         1 44C      -0.358100
     22 C22         22.2400    41.6600    13.1100 ca         1 44C       0.083100
     23 C23         21.9640    40.4610    12.4170 ca         1 44C      -0.146500
     24 C24         21.7710    40.4830    11.0220 ca         1 44C      -0.135000
     25 C25         21.8430    41.6910    10.3070 ca         1 44C       0.316000
     26 C26         22.1460    42.8790    10.9980 ca         1 44C      -0.135000
     27 C27         22.3410    42.8630    12.3910 ca         1 44C      -0.146500
     28 N28         21.6640    41.6660     8.9230 nu         1 44C      -1.013000
     29 C29         21.3040    42.6000     7.9560 ca         1 44C       0.356000
     30 C30         20.5500    43.7320     8.3170 ca         1 44C      -0.224000
     31 C31         20.1720    44.6800     7.3550 ca         1 44C      -0.089000
     32 C32         20.5400    44.4910     6.0170 ca         1 44C      -0.202000
     33 C33         21.2720    43.3540     5.6400 ca         1 44C      -0.050000
     34 C34         21.6530    42.3890     6.6030 ca         1 44C      -0.212600
     35 C35         22.4310    41.1720     6.1580 c          1 44C       0.721600
     36 O36         23.1420    41.2740     5.1680 o          1 44C      -0.719500
     37 O37         22.3030    40.1240     6.7790 o          1 44C      -0.719500
     38 H1          22.6930    40.4270    26.5260 ha         1 44C       0.125500
     39 H2          22.1260    40.1170    24.1600 ha         1 44C       0.087500
     40 H4          20.9780    44.2800    23.8850 ha         1 44C       0.087500
     41 H5          21.5630    44.6000    26.2460 ha         1 44C       0.125500
     42 H8          20.4100    39.9470    22.6090 ha         1 44C       0.114000
     43 H9          19.8420    39.6360    20.2240 ha         1 44C       0.111500
     44 H11         21.2100    43.6520    19.3780 ha         1 44C       0.111500
     45 H12         21.7930    43.9560    21.7390 ha         1 44C       0.114000
     46 H171        21.3830    42.6550    17.2130 h1         1 44C       0.035200
     47 H172        19.7370    43.2650    17.5040 h1         1 44C       0.035200
     48 H181        19.9660    42.5280    15.1630 hc         1 44C       0.051200
     49 H182        18.7840    41.5500    16.0110 hc         1 44C       0.051200
     50 H191        22.5820    39.6760    15.0160 h1         1 44C       0.049200
     51 H192        22.5620    40.8190    16.3570 h1         1 44C       0.049200
     52 H201        20.1780    40.1340    14.5510 hc         1 44C       0.050700
     53 H202        20.3910    39.6760    16.2250 hc         1 44C       0.050700
     54 H23         21.9010    39.5090    12.9350 ha         1 44C       0.107500
     55 H24         21.5580    39.5560    10.4980 ha         1 44C       0.120000
     56 H26         22.2520    43.8150    10.4580 ha         1 44C       0.120000
     57 H27         22.5740    43.7860    12.9160 ha         1 44C       0.107500
     58 H28         21.9150    40.7720     8.4750 hn         1 44C       0.570000
     59 H30         20.2350    43.8770     9.3460 ha         1 44C       0.098000
     60 H31         19.5920    45.5530     7.6450 ha         1 44C       0.080000
     61 H32         20.2490    45.2220     5.2660 ha         1 44C       0.086000
     62 H33         21.5350    43.2180     4.5930 ha         1 44C       0.124000
@<TRIPOS>BOND
     1     1     2 ar  
     2     1     6 ar  
     3     1    38 1   
     4     2     3 ar  
     5     2    39 1   
     6     3     4 ar  
     7     3     7 1   
     8     4     5 ar  
     9     4    40 1   
    10     5     6 ar  
    11     5    41 1   
    12     6    13 1   
    13     7     8 ar  
    14     7    12 ar  
    15     8     9 ar  
    16     8    42 1   
    17     9    10 ar  
    18     9    43 1   
    19    10    11 ar  
    20    10    16 1   
    21    11    12 ar  
    22    11    44 1   
    23    12    45 1   
    24    13    14 1   
    25    13    15 1   
    26    16    17 1   
    27    17    18 1   
    28    17    46 1   
    29    17    47 1   
    30    18    20 1   
    31    18    48 1   
    32    18    49 1   
    33    19    20 1   
    34    19    21 1   
    35    19    50 1   
    36    19    51 1   
    37    20    52 1   
    38    20    53 1   
    39    21    22 1   
    40    22    23 ar  
    41    22    27 ar  
    42    23    24 ar  
    43    23    54 1   
    44    24    25 ar  
    45    24    55 1   
    46    25    26 ar  
    47    25    28 1   
    48    26    27 ar  
    49    26    56 1   
    50    27    57 1   
    51    28    29 1   
    52    28    58 1   
    53    29    30 ar  
    54    29    34 ar  
    55    30    31 ar  
    56    30    59 1   
    57    31    32 ar  
    58    31    60 1   
    59    32    33 ar  
    60    32    61 1   
    61    33    34 ar  
    62    33    62 1   
    63    34    35 1   
    64    35    36 1   
    65    35    37 1   
@<TRIPOS>SUBSTRUCTURE
     1 44C         1 TEMP              0 ****  ****    0 ROOT
