@<TRIPOS>MOLECULE
44C
   62    65     1     0     0
SMALL
bcc


@<TRIPOS>ATOM
      1 C1          22.4200    41.3180    25.7410 ca         1 44C      -0.111000
      2 C2          22.0830    41.1450    24.4080 ca         1 44C      -0.146500
      3 C3          21.5240    42.1870    23.6650 cp         1 44C      -0.074000
      4 C4          21.3190    43.4080    24.3110 ca         1 44C      -0.146500
      5 C5          21.6560    43.5760    25.6450 ca         1 44C      -0.111000
      6 C6          22.2120    42.5350    26.3850 ca         1 44C      -0.124600
      7 C7          21.1590    41.9970    22.2490 cp         1 44C      -0.034000
      8 C8          20.6600    40.7730    21.7900 ca         1 44C      -0.094000
      9 C9          20.3160    40.5850    20.4670 ca         1 44C      -0.196500
     10 C10         20.4600    41.6240    19.5450 ca         1 44C       0.127100
     11 C11         20.9560    42.8500    19.9810 ca         1 44C      -0.196500
     12 C12         21.2970    43.0220    21.3160 ca         1 44C      -0.094000
     13 C13         22.5820    42.7200    27.8500 c          1 44C       0.923200
     14 O14         23.1110    41.7460    28.4190 o          1 44C      -0.828300
     15 O15         22.3240    43.8290    28.3560 o          1 44C      -0.828300
     16 O16         20.0960    41.3520    18.2790 os         1 44C      -0.336900
     17 C17         20.2260    42.3580    17.2860 c3         1 44C       0.141400
     18 C18         19.7400    41.7890    15.9700 c3         1 44C      -0.066400
     19 C19         21.9670    40.6700    15.3690 c3         1 44C       0.141400
     20 C20         20.4600    40.5240    15.5080 c3         1 44C      -0.102400
     21 O21         22.3540    41.7490    14.5330 os         1 44C      -0.334900
     22 C22         22.1930    41.6510    13.1930 ca         1 44C       0.083100
     23 C23         21.8620    40.4860    12.5090 ca         1 44C      -0.164500
     24 C24         21.7370    40.5020    11.1260 ca         1 44C      -0.153000
     25 C25         21.9560    41.6600    10.3820 ca         1 44C       0.177600
     26 C26         22.3130    42.8190    11.0790 ca         1 44C      -0.153000
     27 C27         22.4130    42.8160    12.4590 ca         1 44C      -0.164500
     28 N28         21.8800    41.5920     8.9940 nu         1 44C      -0.681000
     29 C29         21.4390    42.5450     8.1170 ca         1 44C       0.217600
     30 C30         20.6910    43.6580     8.5370 ca         1 44C      -0.242000
     31 C31         20.2400    44.5990     7.6300 ca         1 44C      -0.107000
     32 C32         20.5100    44.4620     6.2730 ca         1 44C      -0.220000
     33 C33         21.2300    43.3570     5.8500 ca         1 44C      -0.068000
     34 C34         21.7020    42.3870     6.7310 ca         1 44C      -0.212600
     35 C35         22.4580    41.2000     6.1580 c          1 44C       0.932200
     36 O36         22.7200    41.2180     4.9450 o          1 44C      -0.824800
     37 O37         22.7660    40.2660     6.9470 o          1 44C      -0.824800
     38 H1          22.8600    40.4950    26.2880 ha         1 44C       0.143500
     39 H2          22.2770    40.1890    23.9350 ha         1 44C       0.105500
     40 H4          20.8670    44.2330    23.7730 ha         1 44C       0.105500
     41 H5          21.4760    44.5310    26.1210 ha         1 44C       0.143500
     42 H8          20.5180    39.9540    22.4850 ha         1 44C       0.132000
     43 H9          19.9230    39.6310    20.1360 ha         1 44C       0.129500
     44 H11         21.0900    43.6790    19.2990 ha         1 44C       0.129500
     45 H12         21.6990    43.9790    21.6240 ha         1 44C       0.132000
     46 H171        21.2700    42.6860    17.2130 h1         1 44C       0.035200
     47 H172        19.6300    43.2370    17.5540 h1         1 44C       0.035200
     48 H181        19.8400    42.5770    15.2200 hc         1 44C       0.051200
     49 H182        18.6700    41.5790    16.0430 hc         1 44C       0.051200
     50 H191        22.4130    39.7290    15.0310 h1         1 44C       0.049200
     51 H192        22.4170    40.8940    16.3370 h1         1 44C       0.049200
     52 H201        20.0190    40.2000    14.5630 hc         1 44C       0.050700
     53 H202        20.2830    39.7090    16.2140 hc         1 44C       0.050700
     54 H23         21.6880    39.5520    13.0260 ha         1 44C       0.125500
     55 H24         21.4590    39.5870    10.6160 ha         1 44C       0.138000
     56 H26         22.5320    43.7330    10.5440 ha         1 44C       0.138000
     57 H27         22.6890    43.7270    12.9760 ha         1 44C       0.125500
     58 H28         22.2820    40.7860     8.5020 hn         1 44C       0.514800
     59 H30         20.4440    43.7790     9.5830 ha         1 44C       0.116000
     60 H31         19.6650    45.4430     7.9900 ha         1 44C       0.098000
     61 H32         20.1610    45.1990     5.5610 ha         1 44C       0.104000
     62 H33         21.4430    43.2300     4.7970 ha         1 44C       0.142000
@<TRIPOS>BOND
     1     1     2 ar  
     2     1     6 ar  
     3     1    38 1   
     4     2     3 ar  
     5     2    39 1   
     6     3     4 ar  
     7     3     7 1   
     8     4     5 ar  
     9     4    40 1   
    10     5     6 ar  
    11     5    41 1   
    12     6    13 1   
    13     7     8 ar  
    14     7    12 ar  
    15     8     9 ar  
    16     8    42 1   
    17     9    10 ar  
    18     9    43 1   
    19    10    11 ar  
    20    10    16 1   
    21    11    12 ar  
    22    11    44 1   
    23    12    45 1   
    24    13    14 1   
    25    13    15 1   
    26    16    17 1   
    27    17    18 1   
    28    17    46 1   
    29    17    47 1   
    30    18    20 1   
    31    18    48 1   
    32    18    49 1   
    33    19    20 1   
    34    19    21 1   
    35    19    50 1   
    36    19    51 1   
    37    20    52 1   
    38    20    53 1   
    39    21    22 1   
    40    22    23 ar  
    41    22    27 ar  
    42    23    24 ar  
    43    23    54 1   
    44    24    25 ar  
    45    24    55 1   
    46    25    26 ar  
    47    25    28 1   
    48    26    27 ar  
    49    26    56 1   
    50    27    57 1   
    51    28    29 1   
    52    28    58 1   
    53    29    30 ar  
    54    29    34 ar  
    55    30    31 ar  
    56    30    59 1   
    57    31    32 ar  
    58    31    60 1   
    59    32    33 ar  
    60    32    61 1   
    61    33    34 ar  
    62    33    62 1   
    63    34    35 1   
    64    35    36 1   
    65    35    37 1   
@<TRIPOS>SUBSTRUCTURE
     1 44C         1 TEMP              0 ****  ****    0 ROOT
