@<TRIPOS>MOLECULE
44F
   43    44     1     0     0
SMALL
No Charge or Current Charge


@<TRIPOS>ATOM
      1 CAA        -42.8990   -18.4300    -8.3150 c3         1 44F       0.143900
      2 OAQ        -43.0160   -17.1020    -7.7750 os         1 44F      -0.344100
      3 CAW        -42.2150   -16.0600    -8.1980 ca         1 44F       0.159100
      4 CAI        -42.3990   -14.8060    -7.5920 ca         1 44F      -0.130000
      5 CAH        -41.2380   -16.2130    -9.2030 ca         1 44F      -0.184000
      6 CAT        -40.4530   -15.1130    -9.5810 ca         1 44F       0.163000
      7 ClC        -39.2420   -15.3000   -10.8420 cl         1 44F      -0.232000
      8 CAG        -40.6310   -13.8640    -8.9640 ca         1 44F      -0.150000
      9 CAU        -41.6140   -13.6980    -7.9670 ca         1 44F      -0.076300
     10 CAM        -41.8690   -12.3260    -7.3360 c3         1 44F       0.202100
     11 NAN        -42.2210   -11.3090    -8.3570 n7         1 44F      -0.857400
     12 CAK        -43.3500   -11.6690    -9.2390 c3         1 44F       0.149800
     13 CAJ        -43.5370   -10.6060   -10.3400 c3         1 44F      -0.111400
     14 CAL        -44.4180   -11.0860   -11.5160 c3         1 44F       0.107000
     15 NAO        -43.7520   -12.1400   -12.2940 ns         1 44F      -0.516900
     16 CAS        -43.9220   -13.4880   -12.0930 c          1 44F       0.654100
     17 OAB        -44.7710   -13.9430   -11.3440 o          1 44F      -0.626100
     18 NAP        -43.0180   -14.2360   -12.8120 ns         1 44F      -0.404100
     19 CAV        -42.8080   -15.6080   -12.8180 cc         1 44F       0.054600
     20 CAE        -41.8090   -16.2030   -13.6260 cc         1 44F      -0.162000
     21 CAD        -41.7260   -17.5650   -13.5070 cd         1 44F      -0.235000
     22 SAR        -42.9260   -18.1750   -12.3580 ss         1 44F       0.181000
     23 CAF        -43.4990   -16.5240   -12.0670 cd         1 44F      -0.257000
     24 H1         -43.6170   -19.1020    -7.8290 h1         1 44F       0.046367
     25 H2         -43.1080   -18.4320    -9.3920 h1         1 44F       0.046367
     26 H3         -41.8920   -18.8320    -8.1500 h1         1 44F       0.046367
     27 H4         -43.1660   -14.6970    -6.8290 ha         1 44F       0.134000
     28 H5         -41.0760   -17.1630    -9.6990 ha         1 44F       0.137000
     29 H6         -40.0160   -13.0240    -9.2750 ha         1 44F       0.122000
     30 H7         -40.9700   -12.0190    -6.7840 h1         1 44F       0.064700
     31 H8         -42.6790   -12.4150    -6.5980 h1         1 44F       0.064700
     32 H9         -41.3960   -11.1820    -8.9540 hn         1 44F       0.403000
     33 H11        -44.2830   -11.7750    -8.6680 h1         1 44F       0.048200
     34 H12        -43.1470   -12.6340    -9.7180 h1         1 44F       0.048200
     35 H13        -42.5610   -10.3060   -10.7400 hc         1 44F       0.048200
     36 H14        -43.9870    -9.7100    -9.8960 hc         1 44F       0.048200
     37 H15        -44.6180   -10.2390   -12.1850 h1         1 44F       0.067200
     38 H16        -45.3840   -11.4480   -11.1380 h1         1 44F       0.067200
     39 H17        -43.0360   -11.8570   -12.9500 hn         1 44F       0.299500
     40 H18        -42.4060   -13.6840   -13.3970 hn         1 44F       0.316500
     41 H19        -41.1660   -15.6180   -14.2760 ha         1 44F       0.134000
     42 H20        -41.0520   -18.2480   -14.0100 h4         1 44F       0.150000
     43 H21        -44.3010   -16.3580   -11.3610 h4         1 44F       0.183000
@<TRIPOS>BOND
     1     1     2 1   
     2     1    24 1   
     3     1    25 1   
     4     1    26 1   
     5     2     3 1   
     6     3     4 ar  
     7     3     5 ar  
     8     4     9 ar  
     9     4    27 1   
    10     5     6 ar  
    11     5    28 1   
    12     6     7 1   
    13     6     8 ar  
    14     8     9 ar  
    15     8    29 1   
    16     9    10 1   
    17    10    11 1   
    18    10    30 1   
    19    10    31 1   
    20    11    12 1   
    21    11    32 1   
    22    12    13 1   
    23    12    33 1   
    24    12    34 1   
    25    13    14 1   
    26    13    35 1   
    27    13    36 1   
    28    14    15 1   
    29    14    37 1   
    30    14    38 1   
    31    15    16 1   
    32    15    39 1   
    33    16    17 2   
    34    16    18 1   
    35    18    19 1   
    36    18    40 1   
    37    19    20 1   
    38    19    23 2   
    39    20    21 2   
    40    20    41 1   
    41    21    22 1   
    42    21    42 1   
    43    22    23 1   
    44    23    43 1   
@<TRIPOS>SUBSTRUCTURE
     1 44F         1 TEMP              0 ****  ****    0 ROOT
