@<TRIPOS>MOLECULE
44F
   43    44     1     0     0
SMALL
abcg2


@<TRIPOS>ATOM
      1 CAA        -42.2270   -18.4720    -8.7480 c3         1 44F       0.143900
      2 OAQ        -42.6060   -17.2520    -8.1080 os         1 44F      -0.344100
      3 CAW        -41.9900   -16.1050    -8.4920 ca         1 44F       0.159100
      4 CAI        -42.3570   -14.9460    -7.7980 ca         1 44F      -0.130000
      5 CAH        -41.0520   -16.0380    -9.5200 ca         1 44F      -0.184000
      6 CAT        -40.5000   -14.7970    -9.8130 ca         1 44F       0.163000
      7 CLC        -39.3340   -14.6970   -11.1220 cl         1 44F      -0.232000
      8 CAG        -40.8360   -13.6450    -9.1300 ca         1 44F      -0.150000
      9 CAU        -41.7860   -13.7220    -8.1060 ca         1 44F      -0.076300
     10 CAM        -42.2010   -12.4660    -7.3510 c3         1 44F       0.202100
     11 NAN        -42.4840   -11.2990    -8.1850 n7         1 44F      -0.857400
     12 CAK        -43.4690   -11.5630    -9.2360 c3         1 44F       0.149800
     13 CAJ        -43.4120   -10.5120   -10.3360 c3         1 44F      -0.111400
     14 CAL        -44.0710   -10.9840   -11.6350 c3         1 44F       0.107000
     15 NAO        -43.3730   -12.1160   -12.2280 ns         1 44F      -0.516900
     16 CAS        -43.7990   -13.4020   -12.0720 c          1 44F       0.654100
     17 OAB        -44.9210   -13.6970   -11.6580 o          1 44F      -0.626100
     18 NAP        -42.8750   -14.3520   -12.4430 ns         1 44F      -0.404100
     19 CAV        -43.0650   -15.7340   -12.4540 cc         1 44F       0.054600
     20 CAE        -42.0300   -16.5920   -12.9490 cc         1 44F      -0.162000
     21 CAD        -42.3670   -17.9100   -12.8940 cd         1 44F      -0.235000
     22 SAR        -43.9430   -18.1330   -12.2460 ss         1 44F       0.181000
     23 CAF        -44.1660   -16.4350   -12.0320 cd         1 44F      -0.257000
     24 H1         -42.8140   -19.2520    -8.2690 h1         1 44F       0.046367
     25 H2         -42.4580   -18.4420    -9.8140 h1         1 44F       0.046367
     26 H3         -41.1630   -18.6710    -8.6050 h1         1 44F       0.046367
     27 H4         -43.1050   -15.0230    -7.0190 ha         1 44F       0.134000
     28 H5         -40.7690   -16.9050   -10.0940 ha         1 44F       0.137000
     29 H6         -40.3850   -12.7010    -9.4010 ha         1 44F       0.122000
     30 H7         -41.4070   -12.1900    -6.6520 h1         1 44F       0.064700
     31 H8         -43.0860   -12.6970    -6.7550 h1         1 44F       0.064700
     32 H9         -41.6240   -10.9750    -8.6120 hn         1 44F       0.403000
     33 H11        -44.4660   -11.5870    -8.7860 h1         1 44F       0.048200
     34 H12        -43.3070   -12.5490    -9.6840 h1         1 44F       0.048200
     35 H13        -42.3650   -10.2750   -10.5530 hc         1 44F       0.048200
     36 H14        -43.8860    -9.5820   -10.0110 hc         1 44F       0.048200
     37 H15        -44.0850   -10.1670   -12.3580 h1         1 44F       0.067200
     38 H16        -45.1010   -11.2910   -11.4600 h1         1 44F       0.067200
     39 H17        -42.4090   -11.9630   -12.4830 hn         1 44F       0.299500
     40 H18        -41.9700   -14.0340   -12.7540 hn         1 44F       0.316500
     41 H19        -41.0820   -16.2250   -13.3150 ha         1 44F       0.134000
     42 H20        -41.7740   -18.7580   -13.1960 h4         1 44F       0.150000
     43 H21        -45.0760   -16.0490   -11.6140 h4         1 44F       0.183000
@<TRIPOS>BOND
     1     1     2 1   
     2     1    24 1   
     3     1    25 1   
     4     1    26 1   
     5     2     3 1   
     6     3     4 ar  
     7     3     5 ar  
     8     4     9 ar  
     9     4    27 1   
    10     5     6 ar  
    11     5    28 1   
    12     6     7 1   
    13     6     8 ar  
    14     8     9 ar  
    15     8    29 1   
    16     9    10 1   
    17    10    11 1   
    18    10    30 1   
    19    10    31 1   
    20    11    12 1   
    21    11    32 1   
    22    12    13 1   
    23    12    33 1   
    24    12    34 1   
    25    13    14 1   
    26    13    35 1   
    27    13    36 1   
    28    14    15 1   
    29    14    37 1   
    30    14    38 1   
    31    15    16 1   
    32    15    39 1   
    33    16    17 2   
    34    16    18 1   
    35    18    19 1   
    36    18    40 1   
    37    19    20 1   
    38    19    23 2   
    39    20    21 2   
    40    20    41 1   
    41    21    22 1   
    42    21    42 1   
    43    22    23 1   
    44    23    43 1   
@<TRIPOS>SUBSTRUCTURE
     1 44F         1 TEMP              0 ****  ****    0 ROOT
