@<TRIPOS>MOLECULE
44G
   63    62     1     0     0
SMALL
bcc


@<TRIPOS>ATOM
      1 C32         -0.4410     1.3930    -0.3160 c3         1 44G      -0.138400
      2 C31         -0.0130     0.0830    -0.9120 c          1 44G       0.673100
      3 O31         -0.0170    -0.1780    -2.0880 o          1 44G      -0.543000
      4 O2           0.4150    -0.7490     0.0370 os         1 44G      -0.420900
      5 C2           0.8800    -2.0540    -0.3000 c3         1 44G       0.125100
      6 C1          -0.1650    -3.0680     0.1280 c3         1 44G       0.201400
      7 O3P         -1.3350    -2.8890    -0.6350 os         1 44G      -0.558200
      8 P           -2.8220    -2.7820     0.0430 p5         1 44G       1.400800
      9 O1P         -2.8120    -3.3660     1.4220 o          1 44G      -0.821000
     10 O2P         -3.7940    -3.2580    -0.9900 o          1 44G      -0.821000
     11 O4P         -2.9070    -1.1410     0.1460 os         1 44G      -0.564200
     12 C4          -4.1700    -0.6000     0.4770 c3         1 44G       0.172400
     13 C5          -4.0130     0.8620     0.8580 c3         1 44G       0.129100
     14 O5          -3.1860     1.0380     1.9850 oh         1 44G      -0.579800
     15 C6          -5.3760     1.5090     1.0410 c3         1 44G       0.096400
     16 O6          -5.1950     2.8850     1.2720 oh         1 44G      -0.588800
     17 C10          2.1800    -2.2780     0.4420 c3         1 44G       0.131400
     18 O1           3.1060    -1.3030    -0.0290 os         1 44G      -0.415900
     19 C12          4.3280    -1.3000     0.4960 c          1 44G       0.643100
     20 C13          5.1640    -0.1810    -0.0610 c3         1 44G      -0.141400
     21 O3           4.6900    -2.1000     1.3220 o          1 44G      -0.551000
     22 H1          -1.0060     1.1910     0.5960 hc         1 44G       0.075200
     23 H2           0.4640     1.9220     0.0040 hc         1 44G       0.075200
     24 H4           1.0540    -2.1350    -1.3750 h1         1 44G       0.084700
     25 H5           0.2320    -4.0730    -0.0460 h1         1 44G       0.034700
     26 H6          -0.3560    -2.9770     1.2010 h1         1 44G       0.034700
     27 H8          -4.8570    -0.6770    -0.3730 h1         1 44G       0.023200
     28 H9          -4.6320    -1.1440     1.3130 h1         1 44G       0.023200
     29 H10         -3.5060     1.3780     0.0370 h1         1 44G       0.088700
     30 H11         -3.5820     0.5770     2.7330 ho         1 44G       0.395000
     31 H12         -5.9760     1.3250     0.1410 h1         1 44G       0.016700
     32 H13         -5.9020     1.0220     1.8760 h1         1 44G       0.016700
     33 H14         -6.0610     3.2820     1.3980 ho         1 44G       0.387000
     34 H15          2.0360    -2.1800     1.5210 h1         1 44G       0.055700
     35 H16          2.5460    -3.2870     0.2360 h1         1 44G       0.055700
     36 H17          5.0540    -0.1720    -1.1500 hc         1 44G       0.071700
     37 H18          4.7250     0.7610     0.2840 hc         1 44G       0.071700
     38 C3          -1.2500     2.2620    -1.2660 c3         1 44G      -0.063400
     39 C7          -1.7110     3.5500    -0.5960 c3         1 44G      -0.084400
     40 C8          -2.6140     4.3950    -1.4830 c3         1 44G      -0.071400
     41 C9          -3.1600     5.6220    -0.7660 c3         1 44G      -0.088100
     42 C11          6.6300    -0.2590     0.3320 c3         1 44G      -0.067400
     43 C14          7.4350     0.8980    -0.2480 c3         1 44G      -0.078400
     44 C15          8.9140     0.8310     0.1100 c3         1 44G      -0.075400
     45 C16          9.7130     1.9890    -0.4700 c3         1 44G      -0.088100
     46 H3          -0.6630     2.5010    -2.1560 hc         1 44G       0.049700
     47 H19         -2.1240     1.7050    -1.6180 hc         1 44G       0.049700
     48 H20         -2.2450     3.3090     0.3290 hc         1 44G       0.043200
     49 H21         -0.8380     4.1390    -0.2930 hc         1 44G       0.043200
     50 H22         -2.0650     4.6990    -2.3800 hc         1 44G       0.033200
     51 H23         -3.4510     3.7820    -1.8330 hc         1 44G       0.033200
     52 H24         -3.7720     5.3250     0.0880 hc         1 44G       0.027033
     53 H25         -2.3540     6.2570    -0.3930 hc         1 44G       0.027033
     54 H26         -3.7810     6.2300    -1.4250 hc         1 44G       0.027033
     55 H27          6.7260    -0.2560     1.4210 hc         1 44G       0.051200
     56 H28          7.0550    -1.2050    -0.0150 hc         1 44G       0.051200
     57 H29          7.3270     0.9100    -1.3380 hc         1 44G       0.037700
     58 H30          7.0180     1.8470     0.1080 hc         1 44G       0.037700
     59 H31          9.0230     0.8180     1.1990 hc         1 44G       0.037700
     60 H32          9.3300    -0.1170    -0.2470 hc         1 44G       0.037700
     61 H33          9.6380     2.0120    -1.5590 hc         1 44G       0.029367
     62 H34          9.3480     2.9470    -0.0960 hc         1 44G       0.029367
     63 H35         10.7700     1.9160    -0.2130 hc         1 44G       0.029367
@<TRIPOS>BOND
     1     1     2 1   
     2     1    22 1   
     3     1    23 1   
     4     1    38 1   
     5     2     3 2   
     6     2     4 1   
     7     4     5 1   
     8     5     6 1   
     9     5    17 1   
    10     5    24 1   
    11     6     7 1   
    12     6    25 1   
    13     6    26 1   
    14     7     8 1   
    15     8     9 1   
    16     8    10 1   
    17     8    11 1   
    18    11    12 1   
    19    12    13 1   
    20    12    27 1   
    21    12    28 1   
    22    13    14 1   
    23    13    15 1   
    24    13    29 1   
    25    14    30 1   
    26    15    16 1   
    27    15    31 1   
    28    15    32 1   
    29    16    33 1   
    30    17    18 1   
    31    17    34 1   
    32    17    35 1   
    33    18    19 1   
    34    19    20 1   
    35    19    21 2   
    36    20    36 1   
    37    20    37 1   
    38    20    42 1   
    39    38    39 1   
    40    38    46 1   
    41    38    47 1   
    42    39    40 1   
    43    39    48 1   
    44    39    49 1   
    45    40    41 1   
    46    40    50 1   
    47    40    51 1   
    48    41    52 1   
    49    41    53 1   
    50    41    54 1   
    51    42    43 1   
    52    42    55 1   
    53    42    56 1   
    54    43    44 1   
    55    43    57 1   
    56    43    58 1   
    57    44    45 1   
    58    44    59 1   
    59    44    60 1   
    60    45    61 1   
    61    45    62 1   
    62    45    63 1   
@<TRIPOS>SUBSTRUCTURE
     1 44G         1 TEMP              0 ****  ****    0 ROOT
