@<TRIPOS>MOLECULE
44G
   63    62     1     0     0
SMALL
No Charge or Current Charge


@<TRIPOS>ATOM
      1 C32         -0.2590     1.9910    -0.7640 c3         1 44G      -0.138400
      2 C31          0.3290     0.6150    -1.0920 c          1 44G       0.624100
      3 O31          0.7500     0.3250    -2.2050 o          1 44G      -0.494000
      4 O2           0.6430    -0.0730     0.0540 os         1 44G      -0.444100
      5 C2           1.2360    -1.3930    -0.0530 c3         1 44G       0.148300
      6 C1           0.1190    -2.4700     0.0320 c3         1 44G       0.224600
      7 O3P         -0.7650    -2.3500    -1.0940 os         1 44G      -0.581400
      8 P           -2.3550    -2.3880    -0.8410 p5         1 44G       1.400800
      9 O1P         -2.7410    -3.5110     0.0640 o          1 44G      -0.821000
     10 O2P         -3.0840    -2.4350    -2.1420 o          1 44G      -0.821000
     11 O4P         -2.5130    -0.9480    -0.1420 os         1 44G      -0.587400
     12 C4          -3.8270    -0.4280     0.1020 c3         1 44G       0.195600
     13 C5          -3.7590     0.5760     1.2870 c3         1 44G       0.152300
     14 O5          -3.5590    -0.1080     2.5410 oh         1 44G      -0.642000
     15 C6          -5.0480     1.4310     1.3980 c3         1 44G       0.119600
     16 O6          -4.9730     2.2960     2.5440 oh         1 44G      -0.651000
     17 C10          2.2490    -1.5390     1.1060 c3         1 44G       0.154600
     18 O1           3.3540    -0.6440     0.8620 os         1 44G      -0.439100
     19 C12          4.3640    -0.6020     1.7860 c          1 44G       0.594100
     20 C13          5.4670     0.3770     1.3770 c3         1 44G      -0.141400
     21 O3           4.4110    -1.2960     2.7930 o          1 44G      -0.502000
     22 H1          -0.4510     2.0500     0.3140 hc         1 44G       0.075200
     23 H2           0.4730     2.7580    -1.0390 hc         1 44G       0.075200
     24 H4           1.7890    -1.5270    -0.9930 h1         1 44G       0.084700
     25 H5           0.5810    -3.4660     0.0380 h1         1 44G       0.034700
     26 H6          -0.4170    -2.3470     0.9840 h1         1 44G       0.034700
     27 H8          -4.1930     0.0950    -0.7920 h1         1 44G       0.023200
     28 H9          -4.5400    -1.2280     0.3400 h1         1 44G       0.023200
     29 H10         -2.9240     1.2630     1.0950 h1         1 44G       0.088700
     30 H11         -3.8810     0.5270     3.2190 ho         1 44G       0.434000
     31 H12         -5.1630     2.0260     0.4820 h1         1 44G       0.016700
     32 H13         -5.9200     0.7680     1.4780 h1         1 44G       0.016700
     33 H14         -5.7890     2.8440     2.5460 ho         1 44G       0.426000
     34 H15          1.7540    -1.3030     2.0570 h1         1 44G       0.055700
     35 H16          2.6030    -2.5770     1.1500 h1         1 44G       0.055700
     36 H17          5.0370     1.1450     0.7230 hc         1 44G       0.071700
     37 H18          5.8970     0.8310     2.2770 hc         1 44G       0.071700
     38 C3          -1.5740     2.2590    -1.5330 c3         1 44G      -0.063400
     39 C7          -2.3210     3.5190    -1.0450 c3         1 44G      -0.084400
     40 C8          -3.6520     3.7540    -1.7910 c3         1 44G      -0.071400
     41 C9          -4.4240     4.9830    -1.2730 c3         1 44G      -0.088100
     42 C11          6.5870    -0.3370     0.5830 c3         1 44G      -0.067400
     43 C14          7.7160     0.6200     0.1410 c3         1 44G      -0.078400
     44 C15          8.8350    -0.0920    -0.6510 c3         1 44G      -0.075400
     45 C16          9.9610     0.8620    -1.0930 c3         1 44G      -0.088100
     46 H3          -1.3520     2.3580    -2.6040 hc         1 44G       0.049700
     47 H19         -2.2350     1.3920    -1.4320 hc         1 44G       0.049700
     48 H20         -2.5240     3.4260     0.0290 hc         1 44G       0.043200
     49 H21         -1.6740     4.3950    -1.1730 hc         1 44G       0.043200
     50 H22         -3.4520     3.8830    -2.8610 hc         1 44G       0.033200
     51 H23         -4.2890     2.8660    -1.6900 hc         1 44G       0.033200
     52 H24         -4.6730     4.8650    -0.2110 hc         1 44G       0.027033
     53 H25         -3.8260     5.8940    -1.3900 hc         1 44G       0.027033
     54 H26         -5.3580     5.1100    -1.8320 hc         1 44G       0.027033
     55 H27          7.0130    -1.1370     1.2020 hc         1 44G       0.051200
     56 H28          6.1510    -0.8160    -0.3030 hc         1 44G       0.051200
     57 H29          7.2900     1.4190    -0.4780 hc         1 44G       0.037700
     58 H30          8.1510     1.0980     1.0270 hc         1 44G       0.037700
     59 H31          9.2650    -0.8910    -0.0350 hc         1 44G       0.037700
     60 H32          8.4040    -0.5700    -1.5400 hc         1 44G       0.037700
     61 H33          9.5680     1.6540    -1.7410 hc         1 44G       0.029367
     62 H34         10.4370     1.3300    -0.2230 hc         1 44G       0.029367
     63 H35         10.7300     0.3130    -1.6500 hc         1 44G       0.029367
@<TRIPOS>BOND
     1     1     2 1   
     2     1    22 1   
     3     1    23 1   
     4     1    38 1   
     5     2     3 2   
     6     2     4 1   
     7     4     5 1   
     8     5     6 1   
     9     5    17 1   
    10     5    24 1   
    11     6     7 1   
    12     6    25 1   
    13     6    26 1   
    14     7     8 1   
    15     8     9 1   
    16     8    10 1   
    17     8    11 1   
    18    11    12 1   
    19    12    13 1   
    20    12    27 1   
    21    12    28 1   
    22    13    14 1   
    23    13    15 1   
    24    13    29 1   
    25    14    30 1   
    26    15    16 1   
    27    15    31 1   
    28    15    32 1   
    29    16    33 1   
    30    17    18 1   
    31    17    34 1   
    32    17    35 1   
    33    18    19 1   
    34    19    20 1   
    35    19    21 2   
    36    20    36 1   
    37    20    37 1   
    38    20    42 1   
    39    38    39 1   
    40    38    46 1   
    41    38    47 1   
    42    39    40 1   
    43    39    48 1   
    44    39    49 1   
    45    40    41 1   
    46    40    50 1   
    47    40    51 1   
    48    41    52 1   
    49    41    53 1   
    50    41    54 1   
    51    42    43 1   
    52    42    55 1   
    53    42    56 1   
    54    43    44 1   
    55    43    57 1   
    56    43    58 1   
    57    44    45 1   
    58    44    59 1   
    59    44    60 1   
    60    45    61 1   
    61    45    62 1   
    62    45    63 1   
@<TRIPOS>SUBSTRUCTURE
     1 44G         1 TEMP              0 ****  ****    0 ROOT
