@<TRIPOS>MOLECULE
44I
   74    78     1     0     0
SMALL
No Charge or Current Charge


@<TRIPOS>ATOM
      1 C01          3.1340     0.0590    18.5150 c3         1 44I       0.150100
      2 N05          4.5960     0.1870    18.3670 n7         1 44I      -0.855400
      3 C07          5.1890    -0.5770    17.2390 c3         1 44I       0.164800
      4 C10          6.7500    -0.5000    17.1960 c3         1 44I       0.184800
      5 N13          7.3510     0.8550    17.0450 n3         1 44I      -0.720600
      6 C14          6.9520     1.5550    15.7880 c6         1 44I       0.184300
      7 C17          7.5760     2.9790    15.6700 c6         1 44I      -0.077200
      8 C19          9.1100     2.8930    15.7570 c6         1 44I      -0.075400
      9 C22          9.4460     2.2720    17.1240 c6         1 44I      -0.077200
     10 C24          8.8300     0.8460    17.2210 c6         1 44I       0.184300
     11 C27          8.9480     3.1950    18.2720 c6         1 44I       0.114500
     12 N30          7.5310     3.6790    18.1560 n          1 44I      -0.380800
     13 C31          7.0400     3.9390    16.7670 c6         1 44I       0.114500
     14 C34          6.8960     4.3270    19.2420 c          1 44I       0.602100
     15 O35          6.0120     5.1560    19.0320 o          1 44I      -0.619100
     16 C36          7.2550     3.8850    20.7000 c3         1 44I       0.052700
     17 C38          6.8110     2.4180    20.9430 c3         1 44I      -0.096100
     18 N42          6.7480     4.8220    21.7470 n          1 44I      -0.389800
     19 C43          5.5380     4.6040    22.5710 c5         1 44I       0.105000
     20 C46          5.1020     6.0620    22.9000 c5         1 44I      -0.092400
     21 C49          6.4620     6.8060    22.9720 c5         1 44I       0.146500
     22 N51          6.1580     8.2700    22.8110 n7         1 44I      -0.865300
     23 S53          7.3230     9.4520    23.0030 sy         1 44I       1.186600
     24 O54          6.6540    10.5340    23.7280 o          1 44I      -0.542000
     25 O55          7.9170     9.6390    21.6790 o          1 44I      -0.542000
     26 C56          8.5000     8.6470    24.1020 ca         1 44I      -0.305500
     27 C57          9.7060     8.1150    23.6000 ca         1 44I      -0.020000
     28 C59         10.6070     7.4750    24.4680 ca         1 44I      -0.103000
     29 C61         10.3130     7.3640    25.8390 ca         1 44I       0.012000
     30 C62         11.2130     6.7210    26.7090 ca         1 44I      -0.103000
     31 C64         10.9140     6.6120    28.0760 ca         1 44I       0.141000
     32 Cl          12.0420     5.8070    29.1590 cl         1 44I      -0.206000
     33 C66          9.7170     7.1440    28.5820 ca         1 44I      -0.110000
     34 C68          8.8130     7.7890    27.7190 ca         1 44I      -0.074000
     35 C70          9.1080     7.9010    26.3460 ca         1 44I      -0.068000
     36 C71          8.2060     8.5430    25.4770 ca         1 44I       0.019000
     37 C73          7.2950     6.1050    21.8540 c          1 44I       0.537000
     38 O74          8.2180     6.5310    21.1700 o          1 44I      -0.564000
     39 H1           2.7780     0.6640    19.3600 h1         1 44I       0.029700
     40 H2           2.6180     0.4030    17.6090 h1         1 44I       0.029700
     41 H3           2.8480    -0.9850    18.6990 h1         1 44I       0.029700
     42 H4           5.0400    -0.1330    19.2350 hn         1 44I       0.398000
     43 H6           4.7830    -0.2220    16.2830 h1         1 44I       0.029200
     44 H7           4.9140    -1.6370    17.3260 h1         1 44I       0.029200
     45 H8           7.1240    -0.9550    18.1230 h1         1 44I       0.025700
     46 H9           7.0950    -1.1410    16.3730 h1         1 44I       0.025700
     47 H11          5.8590     1.6520    15.7330 h1         1 44I       0.029700
     48 H12          7.2640     0.9610    14.9160 h1         1 44I       0.029700
     49 H13          7.2970     3.3890    14.6900 hc         1 44I       0.055700
     50 H14          9.5100     2.2740    14.9410 hc         1 44I       0.047200
     51 H15          9.5640     3.8890    15.6570 hc         1 44I       0.047200
     52 H16         10.5370     2.1750    17.2120 hc         1 44I       0.055700
     53 H17          9.0900     0.4120    18.1970 h1         1 44I       0.029700
     54 H18          9.2940     0.2070    16.4540 h1         1 44I       0.029700
     55 H19          9.0950     2.6580    19.2170 h1         1 44I       0.051700
     56 H20          9.5990     4.0810    18.3110 h1         1 44I       0.051700
     57 H21          7.3200     4.9680    16.4970 h1         1 44I       0.051700
     58 H22          5.9410     3.8980    16.7590 h1         1 44I       0.051700
     59 H23          8.3490     3.9100    20.7740 h1         1 44I       0.077700
     60 H24          7.0850     2.0950    21.9550 hc         1 44I       0.051367
     61 H25          5.7270     2.3120    20.8240 hc         1 44I       0.051367
     62 H26          7.2890     1.7340    20.2320 hc         1 44I       0.051367
     63 H27          4.7510     4.0600    22.0340 h1         1 44I       0.058700
     64 H28          5.7910     4.0440    23.4820 h1         1 44I       0.058700
     65 H29          4.4720     6.4560    22.0930 hc         1 44I       0.076200
     66 H30          4.5270     6.1330    23.8290 hc         1 44I       0.076200
     67 H31          6.9460     6.5840    23.9330 h1         1 44I       0.075700
     68 H32          5.8540     8.4740    21.8600 hn         1 44I       0.501000
     69 H33          9.9490     8.1900    22.5420 ha         1 44I       0.133000
     70 H34         11.5320     7.0660    24.0720 ha         1 44I       0.122000
     71 H35         12.1430     6.3050    26.3280 ha         1 44I       0.134000
     72 H36          9.4900     7.0570    29.6420 ha         1 44I       0.132000
     73 H37          7.8870     8.1980    28.1190 ha         1 44I       0.122000
     74 H38          7.2750     8.9500    25.8680 ha         1 44I       0.136000
@<TRIPOS>BOND
     1     1     2 1   
     2     1    39 1   
     3     1    40 1   
     4     1    41 1   
     5     2     3 1   
     6     2    42 1   
     7     3     4 1   
     8     3    43 1   
     9     3    44 1   
    10     4     5 1   
    11     4    45 1   
    12     4    46 1   
    13     5     6 1   
    14     5    10 1   
    15     6     7 1   
    16     6    47 1   
    17     6    48 1   
    18     7     8 1   
    19     7    13 1   
    20     7    49 1   
    21     8     9 1   
    22     8    50 1   
    23     8    51 1   
    24     9    10 1   
    25     9    11 1   
    26     9    52 1   
    27    10    53 1   
    28    10    54 1   
    29    11    12 1   
    30    11    55 1   
    31    11    56 1   
    32    12    13 1   
    33    12    14 1   
    34    13    57 1   
    35    13    58 1   
    36    14    15 2   
    37    14    16 1   
    38    16    17 1   
    39    16    18 1   
    40    16    59 1   
    41    17    60 1   
    42    17    61 1   
    43    17    62 1   
    44    18    19 1   
    45    18    37 1   
    46    19    20 1   
    47    19    63 1   
    48    19    64 1   
    49    20    21 1   
    50    20    65 1   
    51    20    66 1   
    52    21    22 1   
    53    21    37 1   
    54    21    67 1   
    55    22    23 1   
    56    22    68 1   
    57    23    24 2   
    58    23    25 2   
    59    23    26 1   
    60    26    27 ar  
    61    26    36 ar  
    62    27    28 ar  
    63    27    69 1   
    64    28    29 ar  
    65    28    70 1   
    66    29    30 ar  
    67    29    35 ar  
    68    30    31 ar  
    69    30    71 1   
    70    31    32 1   
    71    31    33 ar  
    72    33    34 ar  
    73    33    72 1   
    74    34    35 ar  
    75    34    73 1   
    76    35    36 ar  
    77    36    74 1   
    78    37    38 2   
@<TRIPOS>SUBSTRUCTURE
     1 44I         1 TEMP              0 ****  ****    0 ROOT
