@<TRIPOS>MOLECULE
44I
   74    78     1     0     0
SMALL
abcg2


@<TRIPOS>ATOM
      1 C01          3.2320     1.6780    18.3670 c3         1 44I       0.150100
      2 N05          4.4840     0.9810    18.6320 n7         1 44I      -0.855400
      3 C07          4.9030     0.0970    17.5500 c3         1 44I       0.164800
      4 C10          6.3760    -0.2940    17.6530 c3         1 44I       0.184800
      5 N13          7.3030     0.8200    17.5340 n3         1 44I      -0.720600
      6 C14          7.3250     1.4100    16.2030 c6         1 44I       0.184300
      7 C17          8.2750     2.6060    16.1230 c6         1 44I      -0.077200
      8 C19          9.6840     2.1580    16.5020 c6         1 44I      -0.075400
      9 C22          9.6060     1.6620    17.9440 c6         1 44I      -0.077200
     10 C24          8.6350     0.4790    18.0190 c6         1 44I       0.184300
     11 C27          9.2300     2.8370    18.8570 c6         1 44I       0.114500
     12 N30          7.9780     3.4810    18.4500 n          1 44I      -0.380800
     13 C31          7.8490     3.7740    17.0160 c6         1 44I       0.114500
     14 C34          7.0110     3.8940    19.2880 c          1 44I       0.602100
     15 O35          5.9910     4.4750    18.8980 o          1 44I      -0.619100
     16 C36          7.1790     3.6120    20.7990 c3         1 44I       0.052700
     17 C38          6.7670     2.1850    21.1560 c3         1 44I      -0.096100
     18 N42          6.4130     4.5910    21.5520 n          1 44I      -0.389800
     19 C43          5.0080     4.4280    21.9340 c5         1 44I       0.105000
     20 C46          4.5610     5.8630    22.2470 c5         1 44I      -0.092400
     21 C49          5.8580     6.5530    22.6670 c5         1 44I       0.146500
     22 N51          5.9060     7.9870    22.4260 n7         1 44I      -0.865300
     23 S53          6.2280     9.0300    23.6490 sy         1 44I       1.186600
     24 O54          5.3120     8.7280    24.7220 o          1 44I      -0.542000
     25 O55          6.2230    10.3440    23.0500 o          1 44I      -0.542000
     26 C56          7.8630     8.6770    24.2290 ca         1 44I      -0.305500
     27 C57          8.9700     9.1500    23.4880 ca         1 44I      -0.020000
     28 C59         10.2360     8.8340    23.8950 ca         1 44I      -0.103000
     29 C61         10.4510     8.0360    25.0460 ca         1 44I       0.012000
     30 C62         11.7520     7.6960    25.4830 ca         1 44I      -0.103000
     31 C64         11.9090     6.9260    26.6030 ca         1 44I       0.141000
     32 CL          13.5190     6.5080    27.1440 cl         1 44I      -0.206000
     33 C66         10.8090     6.4540    27.3490 ca         1 44I      -0.110000
     34 C68          9.5410     6.7760    26.9420 ca         1 44I      -0.074000
     35 C70          9.3260     7.5670    25.7890 ca         1 44I      -0.068000
     36 C71          8.0260     7.9060    25.3510 ca         1 44I       0.019000
     37 C73          6.9250     5.7910    21.8680 c          1 44I       0.537000
     38 O74          8.0400     6.2130    21.5780 o          1 44I      -0.564000
     39 H1           2.9720     2.2930    19.2300 h1         1 44I       0.029700
     40 H2           3.3590     2.3360    17.5050 h1         1 44I       0.029700
     41 H3           2.3800     1.0110    18.1540 h1         1 44I       0.029700
     42 H4           4.3940     0.4460    19.4890 hn         1 44I       0.398000
     43 H6           4.7160     0.6160    16.6090 h1         1 44I       0.029200
     44 H7           4.3130    -0.8330    17.5090 h1         1 44I       0.029200
     45 H8           6.5450    -0.7610    18.6270 h1         1 44I       0.025700
     46 H9           6.5820    -1.0690    16.8920 h1         1 44I       0.025700
     47 H11          6.3150     1.7300    15.9440 h1         1 44I       0.029700
     48 H12          7.6390     0.6690    15.4430 h1         1 44I       0.029700
     49 H13          8.2520     2.9750    15.0950 hc         1 44I       0.055700
     50 H14         10.0230     1.3610    15.8340 hc         1 44I       0.047200
     51 H15         10.3910     2.9870    16.4160 hc         1 44I       0.047200
     52 H16         10.5860     1.3120    18.2780 hc         1 44I       0.055700
     53 H17          8.5400     0.1310    19.0500 h1         1 44I       0.029700
     54 H18          9.0750    -0.3520    17.4340 h1         1 44I       0.029700
     55 H19          9.1520     2.4900    19.8810 h1         1 44I       0.051700
     56 H20         10.0370     3.5780    18.8160 h1         1 44I       0.051700
     57 H21          8.4790     4.6400    16.7830 h1         1 44I       0.051700
     58 H22          6.8160     4.0510    16.8310 h1         1 44I       0.051700
     59 H23          8.2180     3.7700    21.0820 h1         1 44I       0.077700
     60 H24          6.8480     2.0360    22.2320 hc         1 44I       0.051367
     61 H25          5.7490     1.9770    20.8320 hc         1 44I       0.051367
     62 H26          7.4200     1.4700    20.6610 hc         1 44I       0.051367
     63 H27          4.4430     3.9860    21.1170 h1         1 44I       0.058700
     64 H28          4.9210     3.7780    22.8080 h1         1 44I       0.058700
     65 H29          4.1760     6.3380    21.3440 hc         1 44I       0.076200
     66 H30          3.7910     5.9020    23.0150 hc         1 44I       0.076200
     67 H31          6.0580     6.3580    23.7240 h1         1 44I       0.075700
     68 H32          6.3800     8.2640    21.5710 hn         1 44I       0.501000
     69 H33          8.8080     9.7580    22.6080 ha         1 44I       0.133000
     70 H34         11.0930     9.1930    23.3380 ha         1 44I       0.122000
     71 H35         12.6110     8.0480    24.9270 ha         1 44I       0.134000
     72 H36         10.9770     5.8540    28.2320 ha         1 44I       0.132000
     73 H37          8.6860     6.4220    27.5040 ha         1 44I       0.122000
     74 H38          7.1690     7.5560    25.9090 ha         1 44I       0.136000
@<TRIPOS>BOND
     1     1     2 1   
     2     1    39 1   
     3     1    40 1   
     4     1    41 1   
     5     2     3 1   
     6     2    42 1   
     7     3     4 1   
     8     3    43 1   
     9     3    44 1   
    10     4     5 1   
    11     4    45 1   
    12     4    46 1   
    13     5     6 1   
    14     5    10 1   
    15     6     7 1   
    16     6    47 1   
    17     6    48 1   
    18     7     8 1   
    19     7    13 1   
    20     7    49 1   
    21     8     9 1   
    22     8    50 1   
    23     8    51 1   
    24     9    10 1   
    25     9    11 1   
    26     9    52 1   
    27    10    53 1   
    28    10    54 1   
    29    11    12 1   
    30    11    55 1   
    31    11    56 1   
    32    12    13 1   
    33    12    14 1   
    34    13    57 1   
    35    13    58 1   
    36    14    15 2   
    37    14    16 1   
    38    16    17 1   
    39    16    18 1   
    40    16    59 1   
    41    17    60 1   
    42    17    61 1   
    43    17    62 1   
    44    18    19 1   
    45    18    37 1   
    46    19    20 1   
    47    19    63 1   
    48    19    64 1   
    49    20    21 1   
    50    20    65 1   
    51    20    66 1   
    52    21    22 1   
    53    21    37 1   
    54    21    67 1   
    55    22    23 1   
    56    22    68 1   
    57    23    24 2   
    58    23    25 2   
    59    23    26 1   
    60    26    27 ar  
    61    26    36 ar  
    62    27    28 ar  
    63    27    69 1   
    64    28    29 ar  
    65    28    70 1   
    66    29    30 ar  
    67    29    35 ar  
    68    30    31 ar  
    69    30    71 1   
    70    31    32 1   
    71    31    33 ar  
    72    33    34 ar  
    73    33    72 1   
    74    34    35 ar  
    75    34    73 1   
    76    35    36 ar  
    77    36    74 1   
    78    37    38 2   
@<TRIPOS>SUBSTRUCTURE
     1 44I         1 TEMP              0 ****  ****    0 ROOT
