@<TRIPOS>MOLECULE
44J
   69    73     1     0     0
SMALL
abcg2


@<TRIPOS>ATOM
      1 CAO          9.0570    -2.0320     1.8910 c5         1 44J       0.041600
      2 CBA          9.5730    -1.5990    -1.5060 c          1 44J       0.619000
      3 CBF          9.1650    -2.7000     0.5220 c5         1 44J       0.101700
      4 CBE         -2.9220     0.9230    -0.7760 c5         1 44J      -0.065700
      5 CAZ          1.8050     2.1900     0.0480 c          1 44J       0.630100
      6 CAM         -5.1470     0.7840    -1.5800 c5         1 44J       0.106300
      7 CAK          5.8660    -0.8260    -0.1540 c3         1 44J      -0.059400
      8 CAX         -3.4840    -0.3670    -0.1690 c5         1 44J      -0.089400
      9 CAL         -4.1540     1.7920    -0.9910 c5         1 44J       0.145300
     10 CAN         -1.8250     1.5350     0.0730 c3         1 44J       0.219800
     11 CBI          7.8180    -2.5000    -0.2360 c5         1 44J       0.107700
     12 NAU          8.2460    -1.8770    -1.4600 ns         1 44J      -0.529900
     13 OAC         10.1710    -1.0640    -2.4280 o          1 44J      -0.578000
     14 NAT         10.1110    -2.0350    -0.3370 ns         1 44J      -0.519900
     15 SAY          7.9840    -0.5960     1.6440 ss         1 44J      -0.406000
     16 CBH          6.8810    -1.6370     0.6290 c5         1 44J       0.059300
     17 CAI          4.8830    -0.0640     0.7270 c3         1 44J      -0.079400
     18 CAH          3.8430     0.6910    -0.0910 c3         1 44J      -0.066400
     19 CAJ          2.8810     1.4550     0.8030 c3         1 44J      -0.160400
     20 OAB          1.6740     2.1810    -1.1570 o          1 44J      -0.573100
     21 NAV          0.9360     2.8850     0.8540 ns         1 44J      -0.615300
     22 SBK         -0.3690     3.7630     0.2560 s6         1 44J       1.297900
     23 OAD         -1.0790     4.1570     1.4520 o          1 44J      -0.530000
     24 OAE          0.1170     4.7520    -0.6760 o          1 44J      -0.530000
     25 NAW         -1.2960     2.7250    -0.5880 n7         1 44J      -0.887300
     26 OAL         -4.5950     2.2740     0.2540 oh         1 44J      -0.654000
     27 OAM         -6.4900     1.1520    -1.4350 oh         1 44J      -0.637000
     28 CBG         -4.8550    -0.5530    -0.8410 c5         1 44J       0.099300
     29 N9          -5.9100    -0.9300     0.0740 na         1 44J      -0.262300
     30 C8          -6.2400    -0.3610     1.2710 cc         1 44J       0.415700
     31 N7          -7.3080    -0.8690     1.8140 nd         1 44J      -0.557100
     32 C5          -7.7230    -1.8180     0.9160 ca         1 44J      -0.096600
     33 C4          -6.8720    -1.8620    -0.1770 ca         1 44J       0.128500
     34 N3          -6.9860    -2.6630    -1.2350 nb         1 44J      -0.229000
     35 C2          -8.0420    -3.4510    -1.1420 ca         1 44J       0.180900
     36 N1          -8.9400    -3.5190    -0.1610 nb         1 44J      -0.305000
     37 C6          -8.8100    -2.7110     0.8970 ca         1 44J       0.451900
     38 N6          -9.7070    -2.7780     1.8830 nv         1 44J      -1.067900
     39 H1           8.6030    -2.7120     2.6140 h1         1 44J       0.078700
     40 H2          10.0280    -1.7220     2.2750 h1         1 44J       0.078700
     41 H3           9.4120    -3.7590     0.6410 h1         1 44J       0.063700
     42 H4          -2.5080     0.6920    -1.7650 hc         1 44J       0.057700
     43 H5          -4.8860     0.6360    -2.6340 h1         1 44J       0.048700
     44 H6           6.3850    -0.1240    -0.8130 hc         1 44J       0.053700
     45 H7           5.3090    -1.5120    -0.8020 hc         1 44J       0.053700
     46 H9          -3.5880    -0.2620     0.9130 hc         1 44J       0.064200
     47 H10         -3.9630     2.6160    -1.6910 h1         1 44J       0.057700
     48 H11         -2.2220     1.8200     1.0470 h1         1 44J       0.059200
     49 H12         -1.0390     0.7900     0.2380 h1         1 44J       0.059200
     50 H13          7.3220    -3.4530    -0.4400 h1         1 44J       0.066700
     51 H14          7.6160    -1.5880    -2.1880 hn         1 44J       0.345500
     52 H15         11.1050    -2.1480    -0.2310 hn         1 44J       0.341500
     53 H16          6.3550    -2.3140     1.3100 h1         1 44J       0.069700
     54 H17          4.3810    -0.7640     1.4040 hc         1 44J       0.046700
     55 H18          5.4270     0.6410     1.3640 hc         1 44J       0.046700
     56 H19          4.3470     1.3830    -0.7710 hc         1 44J       0.057700
     57 H20          3.2890    -0.0140    -0.7150 hc         1 44J       0.057700
     58 H21          3.4210     2.1770     1.4230 hc         1 44J       0.067200
     59 H22          2.3900     0.7740     1.5060 hc         1 44J       0.067200
     60 H23          1.0310     2.8540     1.8610 hn         1 44J       0.347500
     61 H24         -0.9220     2.5560    -1.5160 hn         1 44J       0.498000
     62 H25         -5.5150     2.5460     0.1540 ho         1 44J       0.460000
     63 H26         -6.7090     1.7840    -2.1270 ho         1 44J       0.453000
     64 H27         -4.8100    -1.3570    -1.5740 h1         1 44J       0.097700
     65 H28         -5.6500     0.4340     1.6980 h5         1 44J       0.075800
     66 H29         -8.2060    -4.1320    -1.9700 h5         1 44J       0.043100
     67 H30         -9.6320    -2.1920     2.6950 hn         1 44J       0.506500
     68 H31        -10.4770    -3.4210     1.8260 hn         1 44J       0.506500
     69 H8          -2.8300    -1.2200    -0.3400 hc         1 44J       0.064200
@<TRIPOS>BOND
     1     1     3 1   
     2     1    15 1   
     3     1    39 1   
     4     1    40 1   
     5     2    12 1   
     6     2    13 2   
     7     2    14 1   
     8     3    11 1   
     9     3    14 1   
    10     3    41 1   
    11     4     8 1   
    12     4     9 1   
    13     4    10 1   
    14     4    42 1   
    15     5    19 1   
    16     5    20 2   
    17     5    21 1   
    18     6     9 1   
    19     6    27 1   
    20     6    28 1   
    21     6    43 1   
    22     7    16 1   
    23     7    17 1   
    24     7    44 1   
    25     7    45 1   
    26     8    28 1   
    27     8    46 1   
    28     8    69 1   
    29     9    26 1   
    30     9    47 1   
    31    10    25 1   
    32    10    48 1   
    33    10    49 1   
    34    11    12 1   
    35    11    16 1   
    36    11    50 1   
    37    12    51 1   
    38    14    52 1   
    39    15    16 1   
    40    16    53 1   
    41    17    18 1   
    42    17    54 1   
    43    17    55 1   
    44    18    19 1   
    45    18    56 1   
    46    18    57 1   
    47    19    58 1   
    48    19    59 1   
    49    21    22 1   
    50    21    60 1   
    51    22    23 2   
    52    22    24 2   
    53    22    25 1   
    54    25    61 1   
    55    26    62 1   
    56    27    63 1   
    57    28    29 1   
    58    28    64 1   
    59    29    30 1   
    60    29    33 1   
    61    30    31 2   
    62    30    65 1   
    63    31    32 1   
    64    32    33 ar  
    65    32    37 ar  
    66    33    34 ar  
    67    34    35 ar  
    68    35    36 ar  
    69    35    66 1   
    70    36    37 ar  
    71    37    38 1   
    72    38    67 1   
    73    38    68 1   
@<TRIPOS>SUBSTRUCTURE
     1 44J         1 TEMP              0 ****  ****    0 ROOT
