@<TRIPOS>MOLECULE
44J
   69    73     1     0     0
SMALL
No Charge or Current Charge


@<TRIPOS>ATOM
      1 CAO          9.3090    -2.5430     1.6300 c5         1 44J       0.041600
      2 CBA         10.3640    -0.2530    -0.4930 c          1 44J       0.619000
      3 CBF          9.8670    -2.4530     0.1690 c5         1 44J       0.101700
      4 CBE         -3.2120     1.1200    -0.3590 c5         1 44J      -0.065700
      5 CAZ          1.4960     0.8950    -0.1690 c          1 44J       0.630100
      6 CAM         -5.2850     0.9980    -1.5730 c5         1 44J       0.106300
      7 CAK          6.3110    -0.8320    -0.4760 c3         1 44J      -0.059400
      8 CAX         -4.1630     0.2710     0.5290 c5         1 44J      -0.089400
      9 CAL         -4.2440     2.0480    -1.0650 c5         1 44J       0.145300
     10 CAN         -2.0820     1.8440     0.4090 c3         1 44J       0.219800
     11 CBI          8.7190    -1.9090    -0.7780 c5         1 44J       0.107700
     12 NAU          9.1800    -0.5480    -1.0750 ns         1 44J      -0.529900
     13 OAC         10.9480     0.8090    -0.5890 o          1 44J      -0.578000
     14 NAT         10.8070    -1.3290     0.1940 ns         1 44J      -0.519900
     15 SAY          7.9640    -1.2770     1.7660 ss         1 44J      -0.406000
     16 CBH          7.4040    -1.7860     0.0770 c5         1 44J       0.059300
     17 CAI          4.9660    -0.8970     0.2840 c3         1 44J      -0.079400
     18 CAH          3.8870     0.0340    -0.3130 c3         1 44J      -0.066400
     19 CAJ          2.5420    -0.0350     0.4490 c3         1 44J      -0.160400
     20 OAB          0.9240     0.6400    -1.2180 o          1 44J      -0.573100
     21 NAV          1.2000     2.0000     0.5530 ns         1 44J      -0.615300
     22 SBK          0.1910     3.2310     0.1140 s6         1 44J       1.297900
     23 OAD         -0.2120     3.9390     1.3280 o          1 44J      -0.530000
     24 OAE          0.8040     3.9600    -0.9940 o          1 44J      -0.530000
     25 NAW         -1.1610     2.5230    -0.5170 n7         1 44J      -0.887300
     26 OAL         -4.8690     2.9820    -0.1780 oh         1 44J      -0.654000
     27 OAM         -6.5660     1.6080    -1.8120 oh         1 44J      -0.637000
     28 CBG         -5.2850    -0.1460    -0.4760 c5         1 44J       0.099300
     29 N9          -6.5770    -0.4560     0.1570 na         1 44J      -0.262300
     30 C8          -7.3150     0.4060     0.9800 cc         1 44J       0.415700
     31 N7          -8.4480    -0.1770     1.4160 nd         1 44J      -0.557100
     32 C5          -8.4000    -1.4460     0.8310 ca         1 44J      -0.096600
     33 C4          -7.2730    -1.6290     0.0690 ca         1 44J       0.128500
     34 N3          -7.0240    -2.7830    -0.5820 nb         1 44J      -0.229000
     35 C2          -7.9570    -3.7540    -0.4330 ca         1 44J       0.180900
     36 N1          -9.0980    -3.6770     0.2940 nb         1 44J      -0.305000
     37 C6          -9.3180    -2.5130     0.9250 ca         1 44J       0.451900
     38 N6         -10.4610    -2.4360     1.6580 nv         1 44J      -1.067900
     39 H1           8.8720    -3.5340     1.8080 h1         1 44J       0.078700
     40 H2          10.0830    -2.3800     2.3910 h1         1 44J       0.078700
     41 H3          10.3230    -3.3890    -0.1810 h1         1 44J       0.063700
     42 H4          -2.7170     0.4730    -1.0940 hc         1 44J       0.057700
     43 H5          -4.9140     0.5700    -2.5160 h1         1 44J       0.048700
     44 H6           6.6710     0.2040    -0.4570 hc         1 44J       0.053700
     45 H7           6.1250    -1.0770    -1.5290 hc         1 44J       0.053700
     46 H9          -4.5550     0.8550     1.3710 hc         1 44J       0.064200
     47 H10         -3.7830     2.5810    -1.9090 h1         1 44J       0.057700
     48 H11         -2.5320     2.5620     1.1090 h1         1 44J       0.059200
     49 H12         -1.5420     1.0980     1.0110 h1         1 44J       0.059200
     50 H13          8.5850    -2.5160    -1.6840 h1         1 44J       0.066700
     51 H14          8.7120     0.1520    -1.6360 hn         1 44J       0.345500
     52 H15         11.6870    -1.2760     0.6920 hn         1 44J       0.341500
     53 H16          6.9540    -2.7850     0.1650 h1         1 44J       0.069700
     54 H17          4.5960    -1.9300     0.2730 hc         1 44J       0.046700
     55 H18          5.1270    -0.6270     1.3350 hc         1 44J       0.046700
     56 H19          4.2560     1.0680    -0.3030 hc         1 44J       0.057700
     57 H20          3.7210    -0.2350    -1.3650 hc         1 44J       0.057700
     58 H21          2.7200     0.2440     1.4950 hc         1 44J       0.067200
     59 H22          2.1650    -1.0630     0.3980 hc         1 44J       0.067200
     60 H23          1.6650     2.1800     1.4260 hn         1 44J       0.347500
     61 H24         -0.6820     1.8040    -1.0650 hn         1 44J       0.498000
     62 H25         -5.7910     3.0420    -0.5200 ho         1 44J       0.460000
     63 H26         -7.1570     0.9080    -2.1710 ho         1 44J       0.453000
     64 H27         -4.9410    -1.0590    -0.9820 h1         1 44J       0.097700
     65 H28         -6.9810     1.4100     1.2150 h5         1 44J       0.075800
     66 H29         -7.7700    -4.6930    -0.9510 h5         1 44J       0.043100
     67 H30        -10.5300    -1.6590     2.3110 hn         1 44J       0.506500
     68 H31        -10.9150    -3.3030     1.9330 hn         1 44J       0.506500
     69 H8          -3.6610    -0.6020     0.9620 hc         1 44J       0.064200
@<TRIPOS>BOND
     1     1     3 1   
     2     1    15 1   
     3     1    39 1   
     4     1    40 1   
     5     2    12 1   
     6     2    13 2   
     7     2    14 1   
     8     3    11 1   
     9     3    14 1   
    10     3    41 1   
    11     4     8 1   
    12     4     9 1   
    13     4    10 1   
    14     4    42 1   
    15     5    19 1   
    16     5    20 2   
    17     5    21 1   
    18     6     9 1   
    19     6    27 1   
    20     6    28 1   
    21     6    43 1   
    22     7    16 1   
    23     7    17 1   
    24     7    44 1   
    25     7    45 1   
    26     8    28 1   
    27     8    46 1   
    28     8    69 1   
    29     9    26 1   
    30     9    47 1   
    31    10    25 1   
    32    10    48 1   
    33    10    49 1   
    34    11    12 1   
    35    11    16 1   
    36    11    50 1   
    37    12    51 1   
    38    14    52 1   
    39    15    16 1   
    40    16    53 1   
    41    17    18 1   
    42    17    54 1   
    43    17    55 1   
    44    18    19 1   
    45    18    56 1   
    46    18    57 1   
    47    19    58 1   
    48    19    59 1   
    49    21    22 1   
    50    21    60 1   
    51    22    23 2   
    52    22    24 2   
    53    22    25 1   
    54    25    61 1   
    55    26    62 1   
    56    27    63 1   
    57    28    29 1   
    58    28    64 1   
    59    29    30 1   
    60    29    33 1   
    61    30    31 2   
    62    30    65 1   
    63    31    32 1   
    64    32    33 ar  
    65    32    37 ar  
    66    33    34 ar  
    67    34    35 ar  
    68    35    36 ar  
    69    35    66 1   
    70    36    37 ar  
    71    37    38 1   
    72    38    67 1   
    73    38    68 1   
@<TRIPOS>SUBSTRUCTURE
     1 44J         1 TEMP              0 ****  ****    0 ROOT
