@<TRIPOS>MOLECULE
44K
   67    71     1     0     0
SMALL
abcg2


@<TRIPOS>ATOM
      1 CBI         -7.3600     2.6560    -0.2520 c5         1 44K       0.096700
      2 NAU         -7.9110     1.9720    -1.3940 ns         1 44K      -0.511900
      3 CBA         -9.2720     1.9670    -1.4170 c          1 44K       0.613000
      4 OAC         -9.9790     1.5060    -2.3000 o          1 44K      -0.574000
      5 NAT         -9.6940     2.5780    -0.2810 ns         1 44K      -0.524900
      6 CBF         -8.6260     2.9870     0.5930 c5         1 44K       0.104700
      7 CAO         -8.5680     2.1940     1.9040 c5         1 44K       0.029600
      8 SAY         -7.5560     0.7300     1.5710 ss         1 44K      -0.407000
      9 CBH         -6.4280     1.7720     0.5870 c5         1 44K       0.072300
     10 CAK         -5.4330     0.9620    -0.2230 c3         1 44K      -0.058400
     11 CAI         -4.4570     0.1630     0.6330 c3         1 44K      -0.078400
     12 CAH         -3.4460    -0.5980    -0.2140 c3         1 44K      -0.067400
     13 CAJ         -2.4910    -1.4120     0.6450 c3         1 44K      -0.158400
     14 CAZ         -1.4580    -2.1620    -0.1540 c          1 44K       0.631100
     15 OAB         -1.2210    -1.9690    -1.3270 o          1 44K      -0.572100
     16 NAV         -0.7560    -3.0970     0.5670 ns         1 44K      -0.615300
     17 SBK          0.4260    -4.0770    -0.1210 s6         1 44K       1.297900
     18 OAD          0.9790    -4.7860     1.0110 o          1 44K      -0.534000
     19 OAE         -0.1570    -4.7910    -1.2320 o          1 44K      -0.534000
     20 NAW          1.5720    -3.0920    -0.7230 n7         1 44K      -0.891300
     21 CAN          2.3090    -2.2100     0.1820 c3         1 44K       0.214800
     22 CBE          3.3260    -1.4170    -0.6150 c5         1 44K      -0.075700
     23 CAX          4.1490    -0.4750     0.2600 c5         1 44K      -0.093400
     24 CAL          4.3740    -2.2840    -1.3470 c5         1 44K      -0.069400
     25 CAM          5.7020    -1.5060    -1.2710 c5         1 44K      -0.093400
     26 CBG          5.3290    -0.1540    -0.6520 c5         1 44K       0.082300
     27 N9           6.4280     0.5230     0.0070 na         1 44K      -0.271300
     28 C8           7.1700     0.0690     1.0600 cc         1 44K       0.398700
     29 N7           8.0860     0.9060     1.4550 nd         1 44K      -0.551100
     30 C5           7.9440     1.9790     0.6150 ca         1 44K      -0.101600
     31 C4           6.9170     1.7600    -0.2910 ca         1 44K       0.125500
     32 N3           6.5110     2.6000    -1.2430 nb         1 44K      -0.226000
     33 C2           7.2130     3.7180    -1.2420 ca         1 44K       0.182900
     34 N1           8.2170     4.0650    -0.4390 nb         1 44K      -0.303000
     35 C6           8.6140     3.2110     0.5120 ca         1 44K       0.452900
     36 N6           9.6230     3.5530     1.3160 nv         1 44K      -1.064900
     37 H1          -6.8240     3.5610    -0.5540 h1         1 44K       0.062700
     38 H2          -7.3900     1.8610    -2.2480 hn         1 44K       0.337500
     39 H3         -10.6570     2.5480     0.0090 hn         1 44K       0.343500
     40 H4          -8.6950     4.0530     0.8200 h1         1 44K       0.070700
     41 H5          -8.0970     2.7940     2.6840 h1         1 44K       0.078200
     42 H6          -9.5580     1.9010     2.2520 h1         1 44K       0.078200
     43 H7          -5.8880     2.4250     1.2810 h1         1 44K       0.068700
     44 H8          -5.9690     0.2870    -0.8950 hc         1 44K       0.055700
     45 H9          -4.8690     1.6550    -0.8570 hc         1 44K       0.055700
     46 H10         -3.9310     0.8390     1.3150 hc         1 44K       0.045700
     47 H11         -5.0080    -0.5430     1.2630 hc         1 44K       0.045700
     48 H12         -3.9750    -1.2610    -0.9040 hc         1 44K       0.058200
     49 H13         -2.8820     0.1070    -0.8290 hc         1 44K       0.058200
     50 H14         -1.9560    -0.7590     1.3430 hc         1 44K       0.066200
     51 H15         -3.0440    -2.1210     1.2680 hc         1 44K       0.066200
     52 H16         -0.9470    -3.2430     1.5510 hn         1 44K       0.348500
     53 H17          1.2810    -2.6590    -1.5940 hn         1 44K       0.504000
     54 H18          1.6380    -1.5260     0.7140 h1         1 44K       0.053200
     55 H19          2.8220    -2.8240     0.9230 h1         1 44K       0.053200
     56 H20          2.7900    -0.8060    -1.3510 hc         1 44K       0.057700
     57 H21          3.6020     0.4140     0.5750 hc         1 44K       0.057200
     58 H22          4.4940    -0.9970     1.1590 hc         1 44K       0.057200
     59 H23          4.4740    -3.2550    -0.8590 hc         1 44K       0.058200
     60 H24          4.0720    -2.4790    -2.3750 hc         1 44K       0.058200
     61 H25          6.4090    -2.0280    -0.6230 hc         1 44K       0.057200
     62 H26          6.1840    -1.3860    -2.2410 hc         1 44K       0.057200
     63 H27          4.9900     0.5240    -1.4370 h1         1 44K       0.096700
     64 H28          6.9870    -0.9000     1.5020 h5         1 44K       0.065800
     65 H29          6.9410     4.4560    -1.9890 h5         1 44K       0.046100
     66 H30         10.0510     4.4590     1.2350 hn         1 44K       0.507000
     67 H31          9.9280     2.9460     2.0550 hn         1 44K       0.507000
@<TRIPOS>BOND
     1     1     2 1   
     2     1     6 1   
     3     1     9 1   
     4     1    37 1   
     5     2     3 1   
     6     2    38 1   
     7     3     4 2   
     8     3     5 1   
     9     5     6 1   
    10     5    39 1   
    11     6     7 1   
    12     6    40 1   
    13     7     8 1   
    14     7    41 1   
    15     7    42 1   
    16     8     9 1   
    17     9    10 1   
    18     9    43 1   
    19    10    11 1   
    20    10    44 1   
    21    10    45 1   
    22    11    12 1   
    23    11    46 1   
    24    11    47 1   
    25    12    13 1   
    26    12    48 1   
    27    12    49 1   
    28    13    14 1   
    29    13    50 1   
    30    13    51 1   
    31    14    15 2   
    32    14    16 1   
    33    16    17 1   
    34    16    52 1   
    35    17    18 2   
    36    17    19 2   
    37    17    20 1   
    38    20    21 1   
    39    20    53 1   
    40    21    22 1   
    41    21    54 1   
    42    21    55 1   
    43    22    23 1   
    44    22    24 1   
    45    22    56 1   
    46    23    26 1   
    47    23    57 1   
    48    23    58 1   
    49    24    25 1   
    50    24    59 1   
    51    24    60 1   
    52    25    26 1   
    53    25    61 1   
    54    25    62 1   
    55    26    27 1   
    56    26    63 1   
    57    27    28 1   
    58    27    31 1   
    59    28    29 2   
    60    28    64 1   
    61    29    30 1   
    62    30    31 ar  
    63    30    35 ar  
    64    31    32 ar  
    65    32    33 ar  
    66    33    34 ar  
    67    33    65 1   
    68    34    35 ar  
    69    35    36 1   
    70    36    66 1   
    71    36    67 1   
@<TRIPOS>SUBSTRUCTURE
     1 44K         1 TEMP              0 ****  ****    0 ROOT
