@<TRIPOS>MOLECULE
44K
   67    71     1     0     0
SMALL
No Charge or Current Charge


@<TRIPOS>ATOM
      1 CBI         -8.2240     2.1510    -0.6540 c5         1 44K       0.096700
      2 NAU         -8.7450     0.8510    -1.0930 ns         1 44K      -0.511900
      3 CBA         -9.9470     0.5530    -0.5520 c          1 44K       0.613000
      4 OAC        -10.5800    -0.4630    -0.7620 o          1 44K      -0.574000
      5 NAT        -10.3470     1.5720     0.2420 ns         1 44K      -0.524900
      6 CBF         -9.3550     2.6460     0.3400 c5         1 44K       0.104700
      7 CAO         -8.8080     2.5540     1.8050 c5         1 44K       0.029600
      8 SAY         -7.5230     1.2210     1.8120 ss         1 44K      -0.407000
      9 CBH         -6.9240     1.8800     0.1900 c5         1 44K       0.072300
     10 CAK         -5.8700     0.9410    -0.4560 c3         1 44K      -0.058400
     11 CAI         -4.5300     0.8640     0.3130 c3         1 44K      -0.078400
     12 CAH         -3.4880    -0.0460    -0.3750 c3         1 44K      -0.067400
     13 CAJ         -2.1490    -0.1200     0.3970 c3         1 44K      -0.158400
     14 CAZ         -1.1400    -1.0250    -0.3120 c          1 44K       0.631100
     15 OAB         -0.5470    -0.6870    -1.3250 o          1 44K      -0.572100
     16 NAV         -0.8990    -2.2130     0.2910 ns         1 44K      -0.615300
     17 SBK          0.0620    -3.4310    -0.2690 s6         1 44K       1.297900
     18 OAD          0.4170    -4.2860     0.8630 o          1 44K      -0.534000
     19 OAE         -0.5640    -4.0070    -1.4580 o          1 44K      -0.534000
     20 NAW          1.4520    -2.7200    -0.8050 n7         1 44K      -0.891300
     21 CAN          2.3780    -2.1740     0.1970 c3         1 44K       0.214800
     22 CBE          3.5290    -1.3960    -0.4820 c5         1 44K      -0.075700
     23 CAX          4.5790    -0.8170     0.4990 c5         1 44K      -0.093400
     24 CAL          4.4490    -2.2540    -1.4000 c5         1 44K      -0.069400
     25 CAM          5.7700    -1.4250    -1.5140 c5         1 44K      -0.093400
     26 CBG          5.6020    -0.2390    -0.5120 c5         1 44K       0.082300
     27 N9           6.8500     0.2500     0.0810 na         1 44K      -0.271300
     28 C8           7.7120    -0.4890     0.9020 cc         1 44K       0.398700
     29 N7           8.7760     0.2420     1.2880 nd         1 44K      -0.551100
     30 C5           8.5530     1.4790     0.6740 ca         1 44K      -0.101600
     31 C4           7.3910     1.4980    -0.0570 ca         1 44K       0.125500
     32 N3           6.9800     2.5940    -0.7260 nb         1 44K      -0.226000
     33 C2           7.7880     3.6770    -0.6300 ca         1 44K       0.182900
     34 N1           8.9500     3.7640     0.0620 nb         1 44K      -0.303000
     35 C6           9.3310     2.6540     0.7140 ca         1 44K       0.452900
     36 N6          10.4960     2.7400     1.4120 nv         1 44K      -1.064900
     37 H1          -8.0550     2.8420    -1.4910 h1         1 44K       0.062700
     38 H2          -8.3040     0.1940    -1.7240 hn         1 44K       0.337500
     39 H3         -11.2330     1.5080     0.7290 hn         1 44K       0.343500
     40 H4          -9.7630     3.6350     0.0890 h1         1 44K       0.070700
     41 H5          -8.3290     3.4990     2.0910 h1         1 44K       0.078200
     42 H6          -9.5970     2.3460     2.5410 h1         1 44K       0.078200
     43 H7          -6.4310     2.8420     0.3860 h1         1 44K       0.068700
     44 H8          -6.2760    -0.0740    -0.5490 hc         1 44K       0.055700
     45 H9          -5.6630     1.2870    -1.4760 hc         1 44K       0.055700
     46 H10         -4.1150     1.8750     0.4130 hc         1 44K       0.045700
     47 H11         -4.7130     0.4920     1.3290 hc         1 44K       0.045700
     48 H12         -3.9030    -1.0580    -0.4760 hc         1 44K       0.058200
     49 H13         -3.3010     0.3240    -1.3910 hc         1 44K       0.058200
     50 H14         -1.7260     0.8900     0.4570 hc         1 44K       0.066200
     51 H15         -2.3490    -0.4990     1.4060 hc         1 44K       0.066200
     52 H16         -1.3790    -2.4630     1.1380 hn         1 44K       0.348500
     53 H17          1.0110    -1.9290    -1.2810 hn         1 44K       0.504000
     54 H18          1.8560    -1.4920     0.8820 h1         1 44K       0.053200
     55 H19          2.8110    -2.9830     0.8020 h1         1 44K       0.053200
     56 H20          3.0600    -0.5870    -1.0570 hc         1 44K       0.057700
     57 H21          4.1600    -0.0410     1.1500 hc         1 44K       0.057200
     58 H22          5.0140    -1.5910     1.1430 hc         1 44K       0.057200
     59 H23          4.6490    -3.2360    -0.9530 hc         1 44K       0.058200
     60 H24          3.9920    -2.4410    -2.3790 hc         1 44K       0.058200
     61 H25          6.6340    -2.0520    -1.2640 hc         1 44K       0.057200
     62 H26          5.9370    -1.0570    -2.5330 hc         1 44K       0.057200
     63 H27          5.1250     0.5980    -1.0420 h1         1 44K       0.096700
     64 H28          7.5150    -1.5210     1.1700 h5         1 44K       0.065800
     65 H29          7.4690     4.5710    -1.1640 h5         1 44K       0.046100
     66 H30         10.8430     3.6660     1.6460 hn         1 44K       0.507000
     67 H31         10.6860     1.9980     2.0820 hn         1 44K       0.507000
@<TRIPOS>BOND
     1     1     2 1   
     2     1     6 1   
     3     1     9 1   
     4     1    37 1   
     5     2     3 1   
     6     2    38 1   
     7     3     4 2   
     8     3     5 1   
     9     5     6 1   
    10     5    39 1   
    11     6     7 1   
    12     6    40 1   
    13     7     8 1   
    14     7    41 1   
    15     7    42 1   
    16     8     9 1   
    17     9    10 1   
    18     9    43 1   
    19    10    11 1   
    20    10    44 1   
    21    10    45 1   
    22    11    12 1   
    23    11    46 1   
    24    11    47 1   
    25    12    13 1   
    26    12    48 1   
    27    12    49 1   
    28    13    14 1   
    29    13    50 1   
    30    13    51 1   
    31    14    15 2   
    32    14    16 1   
    33    16    17 1   
    34    16    52 1   
    35    17    18 2   
    36    17    19 2   
    37    17    20 1   
    38    20    21 1   
    39    20    53 1   
    40    21    22 1   
    41    21    54 1   
    42    21    55 1   
    43    22    23 1   
    44    22    24 1   
    45    22    56 1   
    46    23    26 1   
    47    23    57 1   
    48    23    58 1   
    49    24    25 1   
    50    24    59 1   
    51    24    60 1   
    52    25    26 1   
    53    25    61 1   
    54    25    62 1   
    55    26    27 1   
    56    26    63 1   
    57    27    28 1   
    58    27    31 1   
    59    28    29 2   
    60    28    64 1   
    61    29    30 1   
    62    30    31 ar  
    63    30    35 ar  
    64    31    32 ar  
    65    32    33 ar  
    66    33    34 ar  
    67    33    65 1   
    68    34    35 ar  
    69    35    36 1   
    70    36    66 1   
    71    36    67 1   
@<TRIPOS>SUBSTRUCTURE
     1 44K         1 TEMP              0 ****  ****    0 ROOT
