@<TRIPOS>MOLECULE
44L
   66    70     1     0     0
SMALL
abcg2


@<TRIPOS>ATOM
      1 C4          -1.0360    -1.5970     0.6250 ca         1 44L       0.127500
      2 N6           1.3710    -2.7470     3.0710 nv         1 44L      -1.063900
      3 C5          -0.2730    -1.5540     1.7810 ca         1 44L      -0.098600
      4 N9          -1.7350    -0.4240     0.6140 na         1 44L      -0.305300
      5 C8          -1.3630     0.2560     1.7430 cc         1 44L       0.411700
      6 CBI          3.8700    -3.2810    -0.2740 c5         1 44L       0.091700
      7 NAU          4.0260    -3.3260    -1.7060 ns         1 44L      -0.509900
      8 CBA          5.1730    -3.9470    -2.1040 c          1 44L       0.615000
      9 OAC          5.5040    -4.1830    -3.2560 o          1 44L      -0.578000
     10 NAT          5.8700    -4.2530    -0.9840 ns         1 44L      -0.528900
     11 CBF          5.2250    -3.8560     0.2380 c5         1 44L       0.106700
     12 CAO          5.9750    -2.7550     0.9970 c5         1 44L       0.031600
     13 SAY          5.3990    -1.1820     0.3110 ss         1 44L      -0.408000
     14 CBH          3.7060    -1.8570     0.2700 c5         1 44L       0.074300
     15 CAK          2.7430    -0.9780    -0.5060 c3         1 44L      -0.056400
     16 CAI          2.4810     0.3560     0.1800 c3         1 44L      -0.081400
     17 CAH          1.4080     1.1810    -0.5190 c3         1 44L      -0.063400
     18 CAJ          1.1120     2.4550     0.2590 c3         1 44L      -0.160400
     19 CAZ          0.0010     3.2850    -0.3290 c          1 44L       0.636100
     20 OAB         -0.2740     3.3360    -1.5060 o          1 44L      -0.554100
     21 NAV         -0.6870     4.0240     0.6050 ns         1 44L      -0.616300
     22 SBK         -1.9040     5.1150     0.2150 s6         1 44L       1.318900
     23 OAD         -2.3280     5.5990     1.5120 o          1 44L      -0.539000
     24 OAE         -1.4240     6.0240    -0.7980 o          1 44L      -0.539000
     25 CAN         -3.8450     3.2720     0.3420 c3         1 44L       0.235800
     26 CBE         -3.9160     1.9360    -0.3610 c5         1 44L       0.133300
     27 OAX         -2.6120     1.3910    -0.5190 os         1 44L      -0.450000
     28 CAL         -4.6750     0.8750     0.4340 c5         1 44L       0.117300
     29 OAL         -6.0480     1.0330     0.2910 oh         1 44L      -0.680000
     30 CAM         -4.0930    -0.4040    -0.1580 c5         1 44L       0.119300
     31 CBG         -2.6420    -0.0060    -0.4350 c5         1 44L       0.292300
     32 N7          -0.4920    -0.3860     2.4640 nd         1 44L      -0.551100
     33 N3          -1.0640    -2.5760    -0.2750 nb         1 44L      -0.217000
     34 C2          -0.2470    -3.5620     0.0530 ca         1 44L       0.184900
     35 N1           0.5420    -3.6580     1.1200 nb         1 44L      -0.310000
     36 C6           0.5620    -2.6630     2.0140 ca         1 44L       0.451900
     37 F1          -4.7120    -0.6630    -1.3690 f          1 44L      -0.231000
     38 H1           1.9060    -3.5820     3.2340 hn         1 44L       0.508500
     39 H2           1.3620    -2.0420     3.7870 hn         1 44L       0.508500
     40 H3          -1.7580     1.2300     1.9830 h5         1 44L       0.068800
     41 H5           3.2360    -3.2900    -2.3280 hn         1 44L       0.336500
     42 H6           6.7970    -4.6410    -1.0180 hn         1 44L       0.344500
     43 H7           5.0780    -4.7120     0.9000 h1         1 44L       0.065700
     44 H8           5.7360    -2.8020     2.0610 h1         1 44L       0.074700
     45 H9           7.0560    -2.8440     0.8890 h1         1 44L       0.074700
     46 H10          3.3590    -1.9380     1.3060 h1         1 44L       0.066700
     47 H11          3.1180    -0.8150    -1.5200 hc         1 44L       0.055200
     48 H12          1.7950    -1.5180    -0.6100 hc         1 44L       0.055200
     49 H13          2.1750     0.1710     1.2140 hc         1 44L       0.047200
     50 H14          3.4060     0.9370     0.2340 hc         1 44L       0.047200
     51 H15          1.7250     1.4230    -1.5350 hc         1 44L       0.054700
     52 H16          0.4960     0.5870    -0.6110 hc         1 44L       0.054700
     53 H17          0.8810     2.2110     1.2990 hc         1 44L       0.066200
     54 H18          2.0030     3.0920     0.2920 hc         1 44L       0.066200
     55 H19         -0.4150     4.0010     1.5800 hn         1 44L       0.344500
     56 H21         -3.3800     3.1490     1.3230 h1         1 44L       0.067700
     57 H22         -4.8640     3.6210     0.5170 h1         1 44L       0.067700
     58 H23         -4.3880     2.0650    -1.3440 h1         1 44L       0.095700
     59 H24         -4.3610     0.9290     1.4870 h1         1 44L       0.048700
     60 H25         -6.4950     0.5690     1.0050 ho         1 44L       0.522000
     61 H26         -4.1870    -1.2890     0.4740 h1         1 44L       0.093700
     62 H27         -2.2910    -0.4710    -1.3610 h2         1 44L       0.128700
     63 H28         -0.2100    -4.4020    -0.6310 h5         1 44L       0.052100
     64 NAW         -3.1160     4.2660    -0.4370 n7         1 44L      -0.919300
     65 H4           3.0210    -3.8870     0.0550 h1         1 44L       0.076700
     66 H20         -3.0360     4.1210    -1.4360 hn         1 44L       0.521000
@<TRIPOS>BOND
     1     1     3 ar  
     2     1     4 1   
     3     1    33 ar  
     4     2    36 1   
     5     2    38 1   
     6     2    39 1   
     7     3    32 1   
     8     3    36 ar  
     9     4     5 1   
    10     4    31 1   
    11     5    32 2   
    12     5    40 1   
    13     6     7 1   
    14     6    11 1   
    15     6    14 1   
    16     6    65 1   
    17     7     8 1   
    18     7    41 1   
    19     8     9 2   
    20     8    10 1   
    21    10    11 1   
    22    10    42 1   
    23    11    12 1   
    24    11    43 1   
    25    12    13 1   
    26    12    44 1   
    27    12    45 1   
    28    13    14 1   
    29    14    15 1   
    30    14    46 1   
    31    15    16 1   
    32    15    47 1   
    33    15    48 1   
    34    16    17 1   
    35    16    49 1   
    36    16    50 1   
    37    17    18 1   
    38    17    51 1   
    39    17    52 1   
    40    18    19 1   
    41    18    53 1   
    42    18    54 1   
    43    19    20 2   
    44    19    21 1   
    45    21    22 1   
    46    21    55 1   
    47    22    23 2   
    48    22    24 2   
    49    22    64 1   
    50    25    26 1   
    51    25    56 1   
    52    25    57 1   
    53    25    64 1   
    54    26    27 1   
    55    26    28 1   
    56    26    58 1   
    57    27    31 1   
    58    28    29 1   
    59    28    30 1   
    60    28    59 1   
    61    29    60 1   
    62    30    31 1   
    63    30    37 1   
    64    30    61 1   
    65    31    62 1   
    66    33    34 ar  
    67    34    35 ar  
    68    34    63 1   
    69    35    36 ar  
    70    64    66 1   
@<TRIPOS>SUBSTRUCTURE
     1 44L         1 TEMP              0 ****  ****    0 ROOT
