@<TRIPOS>MOLECULE
44L
   66    70     1     0     0
SMALL
No Charge or Current Charge


@<TRIPOS>ATOM
      1 C4          -1.4530    -1.7380    -0.1560 ca         1 44L       0.127500
      2 N6           0.8380    -3.9780     1.5880 nv         1 44L      -1.063900
      3 C5          -0.8640    -2.3950     0.8950 ca         1 44L      -0.098600
      4 N9          -2.4740    -1.0140     0.3910 na         1 44L      -0.305300
      5 C8          -2.4490    -1.2400     1.7730 cc         1 44L       0.411700
      6 CBI          4.4090    -2.9280     1.0820 c5         1 44L       0.091700
      7 NAU          3.8010    -3.6260    -0.0560 ns         1 44L      -0.509900
      8 CBA          4.6740    -4.4050    -0.7300 c          1 44L       0.615000
      9 OAC          4.4080    -5.0820    -1.7030 o          1 44L      -0.578000
     10 NAT          5.8880    -4.3310    -0.1380 ns         1 44L      -0.528900
     11 CBF          5.9230    -3.3880     0.9830 c5         1 44L       0.106700
     12 CAO          6.7770    -2.1820     0.4640 c5         1 44L       0.031600
     13 SAY          5.6410    -1.1060    -0.5250 ss         1 44L      -0.408000
     14 CBH          4.3530    -1.3870     0.7750 c5         1 44L       0.074300
     15 CAK          2.9700    -0.8190     0.3540 c3         1 44L      -0.056400
     16 CAI          2.9410     0.7160     0.1820 c3         1 44L      -0.081400
     17 CAH          1.5420     1.2680    -0.1720 c3         1 44L      -0.063400
     18 CAJ          1.5720     2.7830    -0.4890 c3         1 44L      -0.160400
     19 CAZ          0.1910     3.3310    -0.8500 c          1 44L       0.636100
     20 OAB         -0.4140     2.9830    -1.8500 o          1 44L      -0.554100
     21 NAV         -0.3210     4.2440     0.0090 ns         1 44L      -0.616300
     22 SBK         -1.6950     5.1310    -0.1990 s6         1 44L       1.318900
     23 OAD         -2.0670     5.6820     1.1030 o          1 44L      -0.539000
     24 OAE         -1.5240     6.0090    -1.3550 o          1 44L      -0.539000
     25 CAN         -3.5900     3.3500     0.4510 c3         1 44L       0.235800
     26 CBE         -4.1420     1.9950    -0.0470 c5         1 44L       0.133300
     27 OAX         -3.0380     1.1310    -0.4080 os         1 44L      -0.450000
     28 CAL         -4.9230     1.1690     1.0090 c5         1 44L       0.117300
     29 OAL         -6.2320     1.7010     1.2770 oh         1 44L      -0.680000
     30 CAM         -4.9300    -0.2080     0.2700 c5         1 44L       0.119300
     31 CBG         -3.4860    -0.2450    -0.3410 c5         1 44L       0.292300
     32 N7          -1.4700    -2.0960     2.1170 nd         1 44L      -0.551100
     33 N3          -1.0290    -1.8900    -1.4260 nb         1 44L      -0.217000
     34 C2           0.0150    -2.7370    -1.5990 ca         1 44L       0.184900
     35 N1           0.6560    -3.4420    -0.6340 nb         1 44L      -0.310000
     36 C6           0.2110    -3.2630     0.6190 ca         1 44L       0.451900
     37 F1          -5.8940    -0.2380    -0.7480 f          1 44L      -0.231000
     38 H1           1.3230    -4.8250     1.3110 hn         1 44L       0.508500
     39 H2           0.3810    -4.0030     2.4960 hn         1 44L       0.508500
     40 H3          -3.1580    -0.7840     2.4550 h5         1 44L       0.068800
     41 H5           2.8380    -3.5690    -0.3620 hn         1 44L       0.336500
     42 H6           6.6640    -4.8550    -0.5240 hn         1 44L       0.344500
     43 H7           6.3130    -3.8320     1.9090 h1         1 44L       0.065700
     44 H8           7.1590    -1.5970     1.3110 h1         1 44L       0.074700
     45 H9           7.6410    -2.5000    -0.1350 h1         1 44L       0.074700
     46 H10          4.6690    -0.8420     1.6750 h1         1 44L       0.066700
     47 H11          2.6470    -1.2760    -0.5890 hc         1 44L       0.055200
     48 H12          2.2240    -1.0990     1.1090 hc         1 44L       0.055200
     49 H13          3.2920     1.1920     1.1060 hc         1 44L       0.047200
     50 H14          3.6440     1.0020    -0.6100 hc         1 44L       0.047200
     51 H15          1.1480     0.7250    -1.0410 hc         1 44L       0.054700
     52 H16          0.8530     1.0790     0.6620 hc         1 44L       0.054700
     53 H17          1.9800     3.3270     0.3710 hc         1 44L       0.066200
     54 H18          2.2300     2.9420    -1.3520 hc         1 44L       0.066200
     55 H19          0.1920     4.5200     0.8280 hn         1 44L       0.344500
     56 H21         -2.9310     3.1350     1.3050 h1         1 44L       0.067700
     57 H22         -4.4190     3.9680     0.8230 h1         1 44L       0.067700
     58 H23         -4.7630     2.1740    -0.9360 h1         1 44L       0.095700
     59 H24         -4.3440     1.1050     1.9410 h1         1 44L       0.048700
     60 H25         -6.7050     1.0600     1.8580 ho         1 44L       0.522000
     61 H26         -5.1230    -1.0530     0.9430 h1         1 44L       0.093700
     62 H27         -3.5270    -0.6790    -1.3490 h2         1 44L       0.128700
     63 H28          0.3700    -2.8710    -2.6190 h5         1 44L       0.052100
     64 NAW         -2.8600     4.0480    -0.6260 n7         1 44L      -0.919300
     65 H4           3.9400    -3.1920     2.0400 h1         1 44L       0.076700
     66 H20         -2.2400     3.3620    -1.0680 hn         1 44L       0.521000
@<TRIPOS>BOND
     1     1     3 ar  
     2     1     4 1   
     3     1    33 ar  
     4     2    36 1   
     5     2    38 1   
     6     2    39 1   
     7     3    32 1   
     8     3    36 ar  
     9     4     5 1   
    10     4    31 1   
    11     5    32 2   
    12     5    40 1   
    13     6     7 1   
    14     6    11 1   
    15     6    14 1   
    16     6    65 1   
    17     7     8 1   
    18     7    41 1   
    19     8     9 2   
    20     8    10 1   
    21    10    11 1   
    22    10    42 1   
    23    11    12 1   
    24    11    43 1   
    25    12    13 1   
    26    12    44 1   
    27    12    45 1   
    28    13    14 1   
    29    14    15 1   
    30    14    46 1   
    31    15    16 1   
    32    15    47 1   
    33    15    48 1   
    34    16    17 1   
    35    16    49 1   
    36    16    50 1   
    37    17    18 1   
    38    17    51 1   
    39    17    52 1   
    40    18    19 1   
    41    18    53 1   
    42    18    54 1   
    43    19    20 2   
    44    19    21 1   
    45    21    22 1   
    46    21    55 1   
    47    22    23 2   
    48    22    24 2   
    49    22    64 1   
    50    25    26 1   
    51    25    56 1   
    52    25    57 1   
    53    25    64 1   
    54    26    27 1   
    55    26    28 1   
    56    26    58 1   
    57    27    31 1   
    58    28    29 1   
    59    28    30 1   
    60    28    59 1   
    61    29    60 1   
    62    30    31 1   
    63    30    37 1   
    64    30    61 1   
    65    31    62 1   
    66    33    34 ar  
    67    34    35 ar  
    68    34    63 1   
    69    35    36 ar  
    70    64    66 1   
@<TRIPOS>SUBSTRUCTURE
     1 44L         1 TEMP              0 ****  ****    0 ROOT
