@<TRIPOS>MOLECULE
44M
   68    72     1     0     0
SMALL
bcc


@<TRIPOS>ATOM
      1 N2          -8.0370    -0.1740     0.8170 n1         1 44M      -0.046000
      2 C4          -2.3590    -2.1100    -0.1150 ca         1 44M       0.451800
      3 C6          -0.5750    -3.5810     0.4230 ca         1 44M       0.778200
      4 CBI          5.0440    -2.8070     0.4040 c5         1 44M       0.097700
      5 NAU          5.1950    -2.9510    -1.0210 ns         1 44M      -0.579900
      6 CBA          6.3680    -3.5440    -1.3820 c          1 44M       0.824500
      7 OAC          6.7050    -3.8480    -2.5160 o          1 44M      -0.648500
      8 NAT          7.0840    -3.7330    -0.2480 ns         1 44M      -0.596900
      9 CBF          6.4300    -3.2680     0.9460 c5         1 44M       0.107700
     10 CAO          7.1290    -2.0710     1.6010 c5         1 44M      -0.017300
     11 SAY          6.4560    -0.5890     0.8070 ss         1 44M      -0.302200
     12 CBH          4.8040    -1.3570     0.8430 c5         1 44M       0.021400
     13 CAK          3.7870    -0.6040     0.0070 c3         1 44M      -0.060400
     14 CAI          3.4500     0.7800     0.5490 c3         1 44M      -0.073400
     15 CAH          2.3140     1.4170    -0.2400 c3         1 44M      -0.076400
     16 CAJ          1.8800     2.7520     0.3450 c3         1 44M      -0.157400
     17 CAZ          0.6750     3.3270    -0.3500 c          1 44M       0.696100
     18 OAB          0.2940     2.9910    -1.4520 o          1 44M      -0.577100
     19 NAV         -0.0000     4.2810     0.3690 ns         1 44M      -0.680300
     20 SBK         -1.3920     5.0360    -0.2010 s6         1 44M       1.433500
     21 OAD         -1.8820     5.7560     0.9520 o          1 44M      -0.600800
     22 OAE         -1.0890     5.7230    -1.4330 o          1 44M      -0.600800
     23 NAW         -2.4520     3.8470    -0.5610 n7         1 44M      -0.820100
     24 CAN         -2.8240     2.9050     0.4880 c3         1 44M       0.193800
     25 CBE         -3.9310     1.9960     0.0030 c5         1 44M       0.137100
     26 OAX         -3.4930     1.2120    -1.1090 os         1 44M      -0.396600
     27 CAL         -4.3640     0.9910     1.0690 c5         1 44M       0.096100
     28 OAL         -5.3770     1.5250     1.8590 oh         1 44M      -0.575800
     29 CAM         -4.7820    -0.2100     0.2100 c5         1 44M       0.094500
     30 CBG         -3.7450    -0.1440    -0.9060 c5         1 44M       0.295800
     31 N9          -2.5010    -0.8130    -0.5260 na         1 44M      -0.293000
     32 C8          -1.2300    -0.3200    -0.6700 cc         1 44M       0.417700
     33 N7          -0.3050    -1.1770    -0.3550 nd         1 44M      -0.566100
     34 C5          -0.9920    -2.3070    -0.0020 ca         1 44M      -0.230200
     35 N3          -3.3060    -3.0150     0.1270 nb         1 44M      -0.758000
     36 C2          -2.7950    -4.1710     0.5140 ca         1 44M       0.711900
     37 N1          -1.5150    -4.4970     0.6740 nb         1 44M      -0.822000
     38 N5          -7.0590    -0.0840     0.2750 n1         1 44M       0.244000
     39 N8Q         -6.0700     0.0280    -0.4300 n2         1 44M      -0.429200
     40 H3           4.4030    -2.9890    -1.6410 hn         1 44M       0.337500
     41 H4           8.0310    -4.0740    -0.2610 hn         1 44M       0.346500
     42 H5           6.3320    -4.0720     1.6770 h1         1 44M       0.067700
     43 H6           6.9080    -2.0460     2.6700 h1         1 44M       0.078200
     44 H7           8.2110    -2.1090     1.4790 h1         1 44M       0.078200
     45 H8           4.4670    -1.3780     1.8860 h1         1 44M       0.067700
     46 H9           4.1390    -0.5250    -1.0250 hc         1 44M       0.057700
     47 H10          2.8640    -1.1950    -0.0250 hc         1 44M       0.057700
     48 H11          3.1620     0.6940     1.6010 hc         1 44M       0.044200
     49 H12          4.3340     1.4250     0.5230 hc         1 44M       0.044200
     50 H13          2.6170     1.5480    -1.2810 hc         1 44M       0.064700
     51 H14          1.4700     0.7240    -0.2450 hc         1 44M       0.064700
     52 H15          1.6650     2.6520     1.4130 hc         1 44M       0.067200
     53 H16          2.6860     3.4900     0.2730 hc         1 44M       0.067200
     54 H17          0.2810     4.5130     1.3140 hn         1 44M       0.347500
     55 H18         -2.2370     3.4190    -1.4560 hn         1 44M       0.456800
     56 H19         -1.9700     2.3090     0.8340 h1         1 44M       0.058200
     57 H20         -3.2050     3.4610     1.3450 h1         1 44M       0.058200
     58 H21         -4.7880     2.5990    -0.3130 h1         1 44M       0.111700
     59 H22         -3.4960     0.6910     1.6710 h1         1 44M       0.051700
     60 H23         -5.3790     1.0770     2.7110 ho         1 44M       0.420000
     61 H24         -4.7720    -1.1570     0.7530 h1         1 44M       0.104700
     62 H25         -4.1080    -0.5930    -1.8330 h2         1 44M       0.125700
     63 H26         -1.0410     0.6800    -1.0280 h5         1 44M       0.084800
     64 H27         -3.5080    -4.9590     0.7310 h5         1 44M       0.050100
     65 N6           0.7110    -3.8970     0.5900 nv         1 44M      -0.955500
     66 H2           4.2340    -3.4380     0.7850 h1         1 44M       0.051700
     67 H28          1.4320    -3.2450     0.3380 hn         1 44M       0.449300
     68 H29          0.9780    -4.8360     0.8300 hn         1 44M       0.449300
@<TRIPOS>BOND
     1     1    38 3   
     2     2    31 1   
     3     2    34 ar  
     4     2    35 ar  
     5     3    34 ar  
     6     3    37 ar  
     7     3    65 1   
     8     4     5 1   
     9     4     9 1   
    10     4    12 1   
    11     4    66 1   
    12     5     6 1   
    13     5    40 1   
    14     6     7 2   
    15     6     8 1   
    16     8     9 1   
    17     8    41 1   
    18     9    10 1   
    19     9    42 1   
    20    10    11 1   
    21    10    43 1   
    22    10    44 1   
    23    11    12 1   
    24    12    13 1   
    25    12    45 1   
    26    13    14 1   
    27    13    46 1   
    28    13    47 1   
    29    14    15 1   
    30    14    48 1   
    31    14    49 1   
    32    15    16 1   
    33    15    50 1   
    34    15    51 1   
    35    16    17 1   
    36    16    52 1   
    37    16    53 1   
    38    17    18 2   
    39    17    19 1   
    40    19    20 1   
    41    19    54 1   
    42    20    21 2   
    43    20    22 2   
    44    20    23 1   
    45    23    24 1   
    46    23    55 1   
    47    24    25 1   
    48    24    56 1   
    49    24    57 1   
    50    25    26 1   
    51    25    27 1   
    52    25    58 1   
    53    26    30 1   
    54    27    28 1   
    55    27    29 1   
    56    27    59 1   
    57    28    60 1   
    58    29    30 1   
    59    29    39 1   
    60    29    61 1   
    61    30    31 1   
    62    30    62 1   
    63    31    32 1   
    64    32    33 2   
    65    32    63 1   
    66    33    34 1   
    67    35    36 ar  
    68    36    37 ar  
    69    36    64 1   
    70    38    39 1   
    71    65    67 1   
    72    65    68 1   
@<TRIPOS>SUBSTRUCTURE
     1 44M         1 TEMP              0 ****  ****    0 ROOT
