@<TRIPOS>MOLECULE
44M
   68    72     1     0     0
SMALL
No Charge or Current Charge


@<TRIPOS>ATOM
      1 N2          -6.2210    -2.0010    -2.4770 n1         1 44M      -0.046000
      2 C4          -1.3210    -1.3900    -0.3350 ca         1 44M       0.123500
      3 C6           0.3620    -3.0720    -0.1640 ca         1 44M       0.449900
      4 CBI          4.6170    -2.8670     1.2480 c5         1 44M       0.097700
      5 NAU          4.0630    -3.4470     0.0210 ns         1 44M      -0.512900
      6 CBA          4.9710    -4.1500    -0.6910 c          1 44M       0.615000
      7 OAC          4.7510    -4.7360    -1.7330 o          1 44M      -0.573000
      8 NAT          6.1610    -4.1230    -0.0490 ns         1 44M      -0.529900
      9 CBF          6.1400    -3.3010     1.1630 c5         1 44M       0.107700
     10 CAO          7.0000    -2.0420     0.8040 c5         1 44M       0.030600
     11 SAY          5.8880    -0.8800    -0.1140 ss         1 44M      -0.398000
     12 CBH          4.5580    -1.3030     1.1020 c5         1 44M       0.069300
     13 CAK          3.1870    -0.6950     0.7020 c3         1 44M      -0.060400
     14 CAI          3.1650     0.8500     0.7000 c3         1 44M      -0.073400
     15 CAH          1.7750     1.4520     0.4010 c3         1 44M      -0.076400
     16 CAJ          1.8100     3.0000     0.3410 c3         1 44M      -0.157400
     17 CAZ          0.4300     3.6000     0.0730 c          1 44M       0.629100
     18 OAB         -0.1350     3.4990    -1.0040 o          1 44M      -0.577100
     19 NAV         -0.1280     4.2680     1.1090 ns         1 44M      -0.613300
     20 SBK         -1.5570     5.0940     1.0960 s6         1 44M       1.291900
     21 OAD         -1.9980     5.2460     2.4820 o          1 44M      -0.530000
     22 OAE         -1.4180     6.2640     0.2320 o          1 44M      -0.530000
     23 NAW         -2.6370     4.1040     0.3400 n7         1 44M      -0.875300
     24 CAN         -3.2190     2.9910     1.1160 c3         1 44M       0.193800
     25 CBE         -3.7720     1.8900     0.1830 c5         1 44M       0.160300
     26 OAX         -2.6990     1.3600    -0.6220 os         1 44M      -0.443000
     27 CAL         -4.3170     0.6250     0.9030 c5         1 44M       0.119300
     28 OAL         -5.6090     0.8200     1.4990 oh         1 44M      -0.698000
     29 CAM         -4.3420    -0.3800    -0.2970 c5         1 44M       0.094500
     30 CBG         -3.1620     0.1260    -1.2100 c5         1 44M       0.348300
     31 N9          -2.0260    -0.7860    -1.3400 na         1 44M      -0.322300
     32 C8          -1.5380    -1.2800    -2.5530 cc         1 44M       0.417700
     33 N7          -0.5800    -2.2060    -2.3560 nd         1 44M      -0.566100
     34 C5          -0.4640    -2.2570    -0.9630 ca         1 44M      -0.099600
     35 N3          -1.3760    -1.2830     1.0080 nb         1 44M      -0.232000
     36 C2          -0.5390    -2.0960     1.6970 ca         1 44M       0.185900
     37 N1           0.3250    -3.0000     1.1750 nb         1 44M      -0.296000
     38 N5          -6.0020    -1.1580    -1.7450 n1         1 44M       0.244000
     39 N8Q         -5.6360    -0.2080    -1.0320 n2         1 44M      -0.429200
     40 H3           3.0990    -3.4050    -0.3000 hn         1 44M       0.337500
     41 H4           6.9560    -4.6050    -0.4500 hn         1 44M       0.346500
     42 H5           6.4990    -3.8340     2.0540 h1         1 44M       0.067700
     43 H6           7.3420    -1.5430     1.7200 h1         1 44M       0.078200
     44 H7           7.8890    -2.2890     0.2090 h1         1 44M       0.078200
     45 H8           4.8420    -0.8570     2.0650 h1         1 44M       0.067700
     46 H9           2.8860    -1.0520    -0.2910 hc         1 44M       0.057700
     47 H10          2.4250    -1.0500     1.4060 hc         1 44M       0.057700
     48 H11          3.5100     1.2150     1.6760 hc         1 44M       0.044200
     49 H12          3.8780     1.2200    -0.0460 hc         1 44M       0.044200
     50 H13          1.4050     1.0580    -0.5550 hc         1 44M       0.064700
     51 H14          1.0640     1.1300     1.1740 hc         1 44M       0.064700
     52 H15          2.2060     3.3830     1.2900 hc         1 44M       0.067200
     53 H16          2.4760     3.2990    -0.4760 hc         1 44M       0.067200
     54 H17          0.3460     4.3330     1.9940 hn         1 44M       0.347500
     55 H18         -1.9800     3.6890    -0.3310 hn         1 44M       0.512000
     56 H19         -2.4610     2.5240     1.7610 h1         1 44M       0.058200
     57 H20         -4.0270     3.3520     1.7670 h1         1 44M       0.058200
     58 H21         -4.5330     2.3340    -0.4750 h1         1 44M       0.111700
     59 H22         -3.5960     0.2940     1.6630 h1         1 44M       0.051700
     60 H23         -6.2600     0.5730     0.7960 ho         1 44M       0.519000
     61 H24         -4.1990    -1.4190     0.0340 h1         1 44M       0.104700
     62 H25         -3.5320     0.3170    -2.2270 h2         1 44M       0.125700
     63 H26         -1.9290    -0.9590    -3.5120 h5         1 44M       0.084800
     64 H27         -0.5730    -2.0230     2.7830 h5         1 44M       0.050100
     65 N6           1.1980    -4.0020    -0.6940 nv         1 44M      -1.065900
     66 H2           4.1130    -3.2340     2.1520 h1         1 44M       0.051700
     67 H28          1.0530    -4.1810    -1.6850 hn         1 44M       0.504500
     68 H29          1.3600    -4.8350    -0.1350 hn         1 44M       0.504500
@<TRIPOS>BOND
     1     1    38 3   
     2     2    31 1   
     3     2    34 ar  
     4     2    35 ar  
     5     3    34 ar  
     6     3    37 ar  
     7     3    65 1   
     8     4     5 1   
     9     4     9 1   
    10     4    12 1   
    11     4    66 1   
    12     5     6 1   
    13     5    40 1   
    14     6     7 2   
    15     6     8 1   
    16     8     9 1   
    17     8    41 1   
    18     9    10 1   
    19     9    42 1   
    20    10    11 1   
    21    10    43 1   
    22    10    44 1   
    23    11    12 1   
    24    12    13 1   
    25    12    45 1   
    26    13    14 1   
    27    13    46 1   
    28    13    47 1   
    29    14    15 1   
    30    14    48 1   
    31    14    49 1   
    32    15    16 1   
    33    15    50 1   
    34    15    51 1   
    35    16    17 1   
    36    16    52 1   
    37    16    53 1   
    38    17    18 2   
    39    17    19 1   
    40    19    20 1   
    41    19    54 1   
    42    20    21 2   
    43    20    22 2   
    44    20    23 1   
    45    23    24 1   
    46    23    55 1   
    47    24    25 1   
    48    24    56 1   
    49    24    57 1   
    50    25    26 1   
    51    25    27 1   
    52    25    58 1   
    53    26    30 1   
    54    27    28 1   
    55    27    29 1   
    56    27    59 1   
    57    28    60 1   
    58    29    30 1   
    59    29    39 1   
    60    29    61 1   
    61    30    31 1   
    62    30    62 1   
    63    31    32 1   
    64    32    33 2   
    65    32    63 1   
    66    33    34 1   
    67    35    36 ar  
    68    36    37 ar  
    69    36    64 1   
    70    38    39 1   
    71    65    67 1   
    72    65    68 1   
@<TRIPOS>SUBSTRUCTURE
     1 44M         1 TEMP              0 ****  ****    0 ROOT
