@<TRIPOS>MOLECULE
44N
   69    73     1     0     0
SMALL
No Charge or Current Charge


@<TRIPOS>ATOM
      1 C2          -0.0810    -3.9680     0.0770 ca         1 44N       0.180900
      2 C5           0.1680    -2.0520    -1.7600 ca         1 44N      -0.100600
      3 C4           0.8220    -1.9660    -0.5580 ca         1 44N       0.130500
      4 N3           0.7150    -2.9180     0.3890 nb         1 44N      -0.212000
      5 C8           1.3120    -0.2360    -1.8690 cc         1 44N       0.405700
      6 N1          -0.7700    -4.1480    -1.0770 nb         1 44N      -0.311000
      7 C6          -0.6470    -3.1780    -1.9940 ca         1 44N       0.448900
      8 CBI         -3.7390    -2.8620     0.4520 c5         1 44N       0.093700
      9 NAU         -4.2000    -2.5870     1.8190 ns         1 44N      -0.511900
     10 CBA         -5.4550    -3.0310     2.0510 c          1 44N       0.615000
     11 OAC         -6.0510    -2.9340     3.1060 o          1 44N      -0.580000
     12 NAT         -5.9370    -3.6200     0.9340 ns         1 44N      -0.527900
     13 CBF         -5.0160    -3.5330    -0.2030 c5         1 44N       0.105700
     14 CAO         -5.6790    -2.4980    -1.1750 c5         1 44N       0.038600
     15 SAY         -5.2040    -0.8140    -0.5710 ss         1 44N      -0.408000
     16 CBH         -3.5050    -1.4810    -0.2630 c5         1 44N       0.075300
     17 CAK         -2.6010    -0.4650     0.4840 c3         1 44N      -0.057400
     18 CAI         -2.3750     0.8680    -0.2670 c3         1 44N      -0.079400
     19 CAH         -1.3760     1.8030     0.4500 c3         1 44N      -0.066400
     20 CAJ         -1.3700     3.2430    -0.1200 c3         1 44N      -0.159400
     21 CAZ         -0.2950     4.1100     0.5420 c          1 44N       0.634100
     22 OAB         -0.3290     4.3840     1.7300 o          1 44N      -0.513100
     23 NAV          0.6630     4.5620    -0.3030 ns         1 44N      -0.632300
     24 SBK          2.0990     5.2920     0.0970 s6         1 44N       1.441500
     25 OAD          2.7380     5.7220    -1.1510 o          1 44N      -0.537500
     26 OAE          1.8870     6.2240     1.2080 o          1 44N      -0.537500
     27 OAW          2.8630     3.9540     0.6600 os         1 44N      -0.550700
     28 CAN          3.4910     3.1130    -0.3260 c3         1 44N       0.209600
     29 CBE          3.6900     1.7040     0.2790 c5         1 44N       0.154300
     30 OAX          2.4060     1.0680     0.5160 os         1 44N      -0.436000
     31 CAL          4.4420     0.7110    -0.6610 c5         1 44N       0.096300
     32 OAL          5.8660     0.9190    -0.6810 oh         1 44N      -0.703000
     33 CAM          4.0700    -0.6390     0.0200 c5         1 44N       0.118000
     34 OAM          4.8690    -0.7910     1.2000 oh         1 44N      -0.699000
     35 C8Q          4.3440    -1.8900    -0.8540 c3         1 44N      -0.110100
     36 CBG          2.5480    -0.3650     0.3550 c5         1 44N       0.319300
     37 N9           1.5450    -0.8100    -0.6160 na         1 44N      -0.297300
     38 N7           0.4540    -0.9720    -2.5990 nd         1 44N      -0.555100
     39 N6          -1.3350    -3.3570    -3.1510 nv         1 44N      -1.063900
     40 H1          -0.1770    -4.7480     0.8300 h5         1 44N       0.051100
     41 H2           1.7830     0.6880    -2.1830 h5         1 44N       0.062800
     42 H4          -3.6870    -2.1270     2.5600 hn         1 44N       0.338500
     43 H5          -6.8730    -4.0060     0.9360 hn         1 44N       0.343500
     44 H6          -4.8150    -4.5050    -0.6730 h1         1 44N       0.060700
     45 H7          -5.2810    -2.6260    -2.1910 h1         1 44N       0.074700
     46 H8          -6.7710    -2.6040    -1.2310 h1         1 44N       0.074700
     47 H9          -3.0440    -1.6670    -1.2430 h1         1 44N       0.067700
     48 H10         -3.0280    -0.2310     1.4670 hc         1 44N       0.055700
     49 H11         -1.6260    -0.9300     0.6750 hc         1 44N       0.055700
     50 H12         -2.0100     0.6610    -1.2810 hc         1 44N       0.047200
     51 H13         -3.3350     1.3880    -0.3720 hc         1 44N       0.047200
     52 H14         -1.6240     1.8470     1.5180 hc         1 44N       0.057700
     53 H15         -0.3690     1.3730     0.3770 hc         1 44N       0.057700
     54 H16         -1.2140     3.2060    -1.2050 hc         1 44N       0.065200
     55 H17         -2.3470     3.6990     0.0790 hc         1 44N       0.065200
     56 H18          0.6370     4.3120    -1.2740 hn         1 44N       0.342500
     57 H19          2.8700     3.0060    -1.2260 h1         1 44N       0.059700
     58 H20          4.4630     3.5250    -0.6260 h1         1 44N       0.059700
     59 H21          4.2160     1.8090     1.2380 h1         1 44N       0.111700
     60 H22          4.0330     0.7650    -1.6800 h1         1 44N       0.048700
     61 H23          6.1970     0.6480    -1.5720 ho         1 44N       0.521000
     62 H24          5.6910    -0.2810     0.9930 ho         1 44N       0.527000
     63 H25          5.4170    -2.0230    -1.0400 hc         1 44N       0.054700
     64 H26          3.9750    -2.8000    -0.3650 hc         1 44N       0.054700
     65 H27          3.8520    -1.8160    -1.8310 hc         1 44N       0.054700
     66 H28          2.2920    -0.8700     1.2950 h2         1 44N       0.136700
     67 H29         -1.0720    -2.7550    -3.9270 hn         1 44N       0.507500
     68 H30         -1.6240    -4.3010    -3.3930 hn         1 44N       0.507500
     69 H3          -2.8590    -3.5150     0.4350 h1         1 44N       0.075700
@<TRIPOS>BOND
     1     1     4 ar  
     2     1     6 ar  
     3     1    40 1   
     4     2     3 ar  
     5     2     7 ar  
     6     2    38 1   
     7     3     4 ar  
     8     3    37 1   
     9     5    37 1   
    10     5    38 2   
    11     5    41 1   
    12     6     7 ar  
    13     7    39 1   
    14     8     9 1   
    15     8    13 1   
    16     8    16 1   
    17     8    69 1   
    18     9    10 1   
    19     9    42 1   
    20    10    11 2   
    21    10    12 1   
    22    12    13 1   
    23    12    43 1   
    24    13    14 1   
    25    13    44 1   
    26    14    15 1   
    27    14    45 1   
    28    14    46 1   
    29    15    16 1   
    30    16    17 1   
    31    16    47 1   
    32    17    18 1   
    33    17    48 1   
    34    17    49 1   
    35    18    19 1   
    36    18    50 1   
    37    18    51 1   
    38    19    20 1   
    39    19    52 1   
    40    19    53 1   
    41    20    21 1   
    42    20    54 1   
    43    20    55 1   
    44    21    22 2   
    45    21    23 1   
    46    23    24 1   
    47    23    56 1   
    48    24    25 2   
    49    24    26 2   
    50    24    27 1   
    51    27    28 1   
    52    28    29 1   
    53    28    57 1   
    54    28    58 1   
    55    29    30 1   
    56    29    31 1   
    57    29    59 1   
    58    30    36 1   
    59    31    32 1   
    60    31    33 1   
    61    31    60 1   
    62    32    61 1   
    63    33    34 1   
    64    33    35 1   
    65    33    36 1   
    66    34    62 1   
    67    35    63 1   
    68    35    64 1   
    69    35    65 1   
    70    36    37 1   
    71    36    66 1   
    72    39    67 1   
    73    39    68 1   
@<TRIPOS>SUBSTRUCTURE
     1 44N         1 TEMP              0 ****  ****    0 ROOT
