@<TRIPOS>MOLECULE
44N
   69    73     1     0     0
SMALL
abcg2


@<TRIPOS>ATOM
      1 C2           0.0110    -3.4380     0.0720 ca         1 44N       0.180900
      2 C5           0.2050    -1.5260    -1.7480 ca         1 44N      -0.100600
      3 C4           0.9470    -1.5630    -0.5790 ca         1 44N       0.130500
      4 N3           0.8900    -2.4960     0.3680 nb         1 44N      -0.212000
      5 C8           1.4250     0.1980    -1.7830 cc         1 44N       0.405700
      6 N1          -0.7650    -3.5350    -1.0050 nb         1 44N      -0.311000
      7 C6          -0.6990    -2.5860    -1.9460 ca         1 44N       0.448900
      8 CBI         -4.0750    -2.9750     0.3480 c5         1 44N       0.093700
      9 NAU         -4.2410    -2.9200     1.7780 ns         1 44N      -0.511900
     10 CBA         -5.4340    -3.4220     2.2030 c          1 44N       0.615000
     11 OAC         -5.7790    -3.5810     3.3650 o          1 44N      -0.580000
     12 NAT         -6.1670    -3.6980     1.0980 ns         1 44N      -0.527900
     13 CBF         -5.4600    -3.5000    -0.1390 c5         1 44N       0.105700
     14 CAO         -6.1040    -2.4350    -1.0310 c5         1 44N       0.038600
     15 SAY         -5.4710    -0.8440    -0.4430 ss         1 44N      -0.408000
     16 CBH         -3.8200    -1.6040    -0.2900 c5         1 44N       0.075300
     17 CAK         -2.8330    -0.7260     0.4570 c3         1 44N      -0.057400
     18 CAI         -2.4960     0.5630    -0.2820 c3         1 44N      -0.079400
     19 CAH         -1.3920     1.3500     0.4110 c3         1 44N      -0.066400
     20 CAJ         -1.0040     2.5850    -0.3900 c3         1 44N      -0.159400
     21 CAZ          0.1070     3.3790     0.2420 c          1 44N       0.634100
     22 OAB          0.3430     3.4200     1.4230 o          1 44N      -0.513100
     23 NAV          0.8540     4.1020    -0.6750 ns         1 44N      -0.632300
     24 SBK          2.0930     5.1280    -0.2630 s6         1 44N       1.441500
     25 OAD          2.5720     5.6530    -1.5180 o          1 44N      -0.537500
     26 OAE          1.7110     6.0010     0.8100 o          1 44N      -0.537500
     27 OAW          3.1660     4.1540     0.3760 os         1 44N      -0.550700
     28 CAN          3.8260     3.1830    -0.4640 c3         1 44N       0.209600
     29 CBE          3.9430     1.8950     0.3050 c5         1 44N       0.154300
     30 OAX          2.6530     1.3460     0.5260 os         1 44N      -0.436000
     31 CAL          4.7000     0.8210    -0.4690 c5         1 44N       0.096300
     32 OAL          6.0790     0.9620    -0.2870 oh         1 44N      -0.703000
     33 CAM          4.1270    -0.4660     0.1500 c5         1 44N       0.118000
     34 OAM          4.6850    -0.6510     1.4300 oh         1 44N      -0.699000
     35 C8Q          4.3050    -1.6970    -0.7180 c3         1 44N      -0.110100
     36 CBG          2.6680    -0.0500     0.4180 c5         1 44N       0.319300
     37 N9           1.7310    -0.4450    -0.6140 na         1 44N      -0.297300
     38 N7           0.5180    -0.4140    -2.4860 nd         1 44N      -0.555100
     39 N6          -1.4910    -2.6680    -3.0160 nv         1 44N      -1.063900
     40 H1          -0.0950    -4.2380     0.7960 h5         1 44N       0.051100
     41 H2           1.8920     1.1260    -2.0710 h5         1 44N       0.062800
     42 H4          -3.4560    -2.8900     2.4060 hn         1 44N       0.338500
     43 H5          -7.0620    -4.1540     1.1520 hn         1 44N       0.343500
     44 H6          -5.3690    -4.4360    -0.6950 h1         1 44N       0.060700
     45 H7          -5.8130    -2.5840    -2.0720 h1         1 44N       0.074700
     46 H8          -7.1920    -2.4580    -0.9760 h1         1 44N       0.074700
     47 H9          -3.4480    -1.7760    -1.3060 h1         1 44N       0.067700
     48 H10         -3.2190    -0.4980     1.4540 hc         1 44N       0.055700
     49 H11         -1.9110    -1.2990     0.6030 hc         1 44N       0.055700
     50 H12         -2.1840     0.3230    -1.3030 hc         1 44N       0.047200
     51 H13         -3.3890     1.1900    -0.3710 hc         1 44N       0.047200
     52 H14         -1.7130     1.6360     1.4140 hc         1 44N       0.057700
     53 H15         -0.5150     0.7090     0.5350 hc         1 44N       0.057700
     54 H16         -0.7290     2.2990    -1.4080 hc         1 44N       0.065200
     55 H17         -1.8620     3.2600    -0.4890 hc         1 44N       0.065200
     56 H18          0.6100     4.0870    -1.6580 hn         1 44N       0.342500
     57 H19          3.2760     3.0260    -1.3960 h1         1 44N       0.059700
     58 H20          4.8160     3.5650    -0.7130 h1         1 44N       0.059700
     59 H21          4.4440     2.0840     1.2630 h1         1 44N       0.111700
     60 H22          4.4320     0.8670    -1.5340 h1         1 44N       0.048700
     61 H23          6.5400     0.5550    -1.0270 ho         1 44N       0.521000
     62 H24          5.6360    -0.4970     1.3650 ho         1 44N       0.527000
     63 H25          5.3680    -1.9280    -0.8150 hc         1 44N       0.054700
     64 H26          3.8150    -2.5660    -0.2790 hc         1 44N       0.054700
     65 H27          3.9120    -1.5500    -1.7240 hc         1 44N       0.054700
     66 H28          2.3140    -0.5200     1.3400 h2         1 44N       0.136700
     67 H29         -1.4040    -2.0120    -3.7730 hn         1 44N       0.507500
     68 H30         -2.0610    -3.4840    -3.1610 hn         1 44N       0.507500
     69 H3          -3.2610    -3.6510     0.0690 h1         1 44N       0.075700
@<TRIPOS>BOND
     1     1     4 ar  
     2     1     6 ar  
     3     1    40 1   
     4     2     3 ar  
     5     2     7 ar  
     6     2    38 1   
     7     3     4 ar  
     8     3    37 1   
     9     5    37 1   
    10     5    38 2   
    11     5    41 1   
    12     6     7 ar  
    13     7    39 1   
    14     8     9 1   
    15     8    13 1   
    16     8    16 1   
    17     8    69 1   
    18     9    10 1   
    19     9    42 1   
    20    10    11 2   
    21    10    12 1   
    22    12    13 1   
    23    12    43 1   
    24    13    14 1   
    25    13    44 1   
    26    14    15 1   
    27    14    45 1   
    28    14    46 1   
    29    15    16 1   
    30    16    17 1   
    31    16    47 1   
    32    17    18 1   
    33    17    48 1   
    34    17    49 1   
    35    18    19 1   
    36    18    50 1   
    37    18    51 1   
    38    19    20 1   
    39    19    52 1   
    40    19    53 1   
    41    20    21 1   
    42    20    54 1   
    43    20    55 1   
    44    21    22 2   
    45    21    23 1   
    46    23    24 1   
    47    23    56 1   
    48    24    25 2   
    49    24    26 2   
    50    24    27 1   
    51    27    28 1   
    52    28    29 1   
    53    28    57 1   
    54    28    58 1   
    55    29    30 1   
    56    29    31 1   
    57    29    59 1   
    58    30    36 1   
    59    31    32 1   
    60    31    33 1   
    61    31    60 1   
    62    32    61 1   
    63    33    34 1   
    64    33    35 1   
    65    33    36 1   
    66    34    62 1   
    67    35    63 1   
    68    35    64 1   
    69    35    65 1   
    70    36    37 1   
    71    36    66 1   
    72    39    67 1   
    73    39    68 1   
@<TRIPOS>SUBSTRUCTURE
     1 44N         1 TEMP              0 ****  ****    0 ROOT
