@<TRIPOS>MOLECULE
44O
   66    70     1     0     0
SMALL
No Charge or Current Charge


@<TRIPOS>ATOM
      1 C4           2.1770     1.7140     0.6260 ca         1 44O       0.141500
      2 C5           1.0400     2.2770     1.1520 ca         1 44O      -0.106600
      3 C6           0.2290     3.0500     0.2970 ca         1 44O       0.445900
      4 C8           1.9340     1.2000     2.7950 cc         1 44O       0.406700
      5 N1           0.5540     3.2330    -0.9920 nb         1 44O      -0.301000
      6 N3           2.5360     1.8790    -0.6620 nb         1 44O      -0.202000
      7 CBI         -5.3710     2.3400    -0.2890 c5         1 44O       0.095700
      8 NAU         -5.9920     1.6440    -1.4220 ns         1 44O      -0.507900
      9 CBA         -7.3010     1.3710    -1.2210 c          1 44O       0.612000
     10 OAC         -8.0310     0.8040    -2.0110 o          1 44O      -0.573000
     11 NAT         -7.6780     1.8460    -0.0120 ns         1 44O      -0.523900
     12 CBF         -6.5710     2.4410     0.7410 c5         1 44O       0.102700
     13 CAO         -6.3040     1.4430     1.9180 c5         1 44O       0.028600
     14 SAY         -5.2490     0.0830     1.2380 ss         1 44O      -0.404000
     15 CBH         -4.2900     1.3750     0.3240 c5         1 44O       0.075300
     16 CAK         -3.2880     0.7430    -0.6780 c3         1 44O      -0.061400
     17 CAI         -2.1220    -0.0210    -0.0090 c3         1 44O      -0.079400
     18 CAH         -1.1040    -0.5820    -1.0240 c3         1 44O      -0.065400
     19 CAJ          0.1120    -1.2470    -0.3400 c3         1 44O      -0.157400
     20 CAZ          1.1620    -1.7390    -1.3410 c          1 44O       0.638100
     21 OAB          1.7070    -0.9880    -2.1330 o          1 44O      -0.519100
     22 NAV          1.4490    -3.0610    -1.2520 ns         1 44O      -0.625300
     23 SBK          2.7390    -3.8400    -1.9410 s6         1 44O       1.445500
     24 OAD          2.7980    -5.1890    -1.3710 o          1 44O      -0.541000
     25 OAE          2.7060    -3.6250    -3.3910 o          1 44O      -0.541000
     26 CAN          4.3050    -3.1900     0.0710 c3         1 44O       0.214600
     27 CBE          4.8050    -1.8690     0.7210 c6         1 44O       0.161300
     28 OAX          3.6450    -1.0270     0.9730 os         1 44O      -0.478000
     29 CAL          5.5780    -2.1190     2.0580 c6         1 44O       0.119800
     30 NAS          5.9400    -0.8390     2.7370 n7         1 44O      -0.859400
     31 CAM          4.7560     0.0650     2.8850 c6         1 44O       0.113800
     32 CBG          3.9900     0.2620     1.5310 c6         1 44O       0.320300
     33 N9           2.7360     1.0290     1.6660 na         1 44O      -0.285300
     34 N7           0.8700     1.9760     2.5110 nd         1 44O      -0.554100
     35 C2           1.6950     2.6330    -1.4100 ca         1 44O       0.186900
     36 N6          -0.9060     3.6660     0.7230 nv         1 44O      -1.067900
     37 H1           2.1600     0.7520     3.7560 h5         1 44O       0.068800
     38 H3          -5.5510     1.3640    -2.2880 hn         1 44O       0.339500
     39 H4          -8.6340     1.7220     0.2980 hn         1 44O       0.341500
     40 H5          -6.7790     3.4660     1.0780 h1         1 44O       0.067700
     41 H6          -5.7480     1.9450     2.7220 h1         1 44O       0.076200
     42 H7          -7.2300     1.0440     2.3550 h1         1 44O       0.076200
     43 H8          -3.7040     1.9370     1.0640 h1         1 44O       0.063700
     44 H9          -3.8110     0.0590    -1.3570 hc         1 44O       0.059200
     45 H10         -2.8630     1.5390    -1.3030 hc         1 44O       0.059200
     46 H11         -1.6050     0.6540     0.6840 hc         1 44O       0.047200
     47 H12         -2.5210    -0.8480     0.5920 hc         1 44O       0.047200
     48 H13         -1.6000    -1.3100    -1.6780 hc         1 44O       0.056700
     49 H14         -0.7510     0.2370    -1.6650 hc         1 44O       0.056700
     50 H15          0.5950    -0.5090     0.3070 hc         1 44O       0.064700
     51 H16         -0.2260    -2.0740     0.2940 hc         1 44O       0.064700
     52 H17          1.0070    -3.6280    -0.5520 hn         1 44O       0.343500
     53 H18          3.4590    -3.5550     0.6700 h1         1 44O       0.064700
     54 H19          5.1010    -3.9450     0.1100 h1         1 44O       0.064700
     55 H20          5.4750    -1.3640     0.0090 h1         1 44O       0.089700
     56 H21          4.9460    -2.7210     2.7290 h1         1 44O       0.047700
     57 H22          6.4900    -2.6990     1.8550 h1         1 44O       0.047700
     58 H23          6.3430    -1.0390     3.6640 hn         1 44O       0.430000
     59 H25          4.0720    -0.3740     3.6260 h1         1 44O       0.050700
     60 H26          5.0810     1.0430     3.2710 h1         1 44O       0.050700
     61 H27          4.6310     0.8170     0.8280 h2         1 44O       0.106700
     62 H28          1.9680     2.7740    -2.4540 h5         1 44O       0.053100
     63 H29         -1.0310     3.7260     1.7300 hn         1 44O       0.503000
     64 H30         -1.2580     4.4460     0.1760 hn         1 44O       0.503000
     65 OAW          3.9340    -2.9210    -1.2960 os         1 44O      -0.558700
     66 H2          -4.9600     3.3190    -0.5700 h1         1 44O       0.058700
@<TRIPOS>BOND
     1     1     2 ar  
     2     1     6 ar  
     3     1    33 1   
     4     2     3 ar  
     5     2    34 1   
     6     3     5 ar  
     7     3    36 1   
     8     4    33 1   
     9     4    34 2   
    10     4    37 1   
    11     5    35 ar  
    12     6    35 ar  
    13     7     8 1   
    14     7    12 1   
    15     7    15 1   
    16     7    66 1   
    17     8     9 1   
    18     8    38 1   
    19     9    10 2   
    20     9    11 1   
    21    11    12 1   
    22    11    39 1   
    23    12    13 1   
    24    12    40 1   
    25    13    14 1   
    26    13    41 1   
    27    13    42 1   
    28    14    15 1   
    29    15    16 1   
    30    15    43 1   
    31    16    17 1   
    32    16    44 1   
    33    16    45 1   
    34    17    18 1   
    35    17    46 1   
    36    17    47 1   
    37    18    19 1   
    38    18    48 1   
    39    18    49 1   
    40    19    20 1   
    41    19    50 1   
    42    19    51 1   
    43    20    21 2   
    44    20    22 1   
    45    22    23 1   
    46    22    52 1   
    47    23    24 2   
    48    23    25 2   
    49    23    65 1   
    50    26    27 1   
    51    26    53 1   
    52    26    54 1   
    53    26    65 1   
    54    27    28 1   
    55    27    29 1   
    56    27    55 1   
    57    28    32 1   
    58    29    30 1   
    59    29    56 1   
    60    29    57 1   
    61    30    31 1   
    62    30    58 1   
    63    31    32 1   
    64    31    59 1   
    65    31    60 1   
    66    32    33 1   
    67    32    61 1   
    68    35    62 1   
    69    36    63 1   
    70    36    64 1   
@<TRIPOS>SUBSTRUCTURE
     1 44O         1 TEMP              0 ****  ****    0 ROOT
