@<TRIPOS>MOLECULE
44O
   66    70     1     0     0
SMALL
abcg2


@<TRIPOS>ATOM
      1 C4           1.8190     1.6250     0.6300 ca         1 44O       0.141500
      2 C5           0.6980     1.9010     1.3970 ca         1 44O      -0.106600
      3 C6          -0.2360     2.7920     0.8390 ca         1 44O       0.445900
      4 C8           1.8750     0.5880     2.5570 cc         1 44O       0.406700
      5 N1           0.0090     3.2710    -0.3850 nb         1 44O      -0.301000
      6 N3           2.0830     2.1020    -0.5820 nb         1 44O      -0.202000
      7 CBI         -5.0530     2.4320    -0.3010 c5         1 44O       0.095700
      8 NAU         -5.4420     2.1120    -1.6510 ns         1 44O      -0.507900
      9 CBA         -6.7900     2.1510    -1.8470 c          1 44O       0.612000
     10 OAC         -7.3720     1.9790    -2.9070 o          1 44O      -0.573000
     11 NAT         -7.3620     2.4250    -0.6470 ns         1 44O      -0.523900
     12 CBF         -6.4210     2.5320     0.4360 c5         1 44O       0.102700
     13 CAO         -6.5200     1.3890     1.4530 c5         1 44O       0.028600
     14 SAY         -5.4430     0.0650     0.8450 ss         1 44O      -0.404000
     15 CBH         -4.2210     1.3280     0.3620 c5         1 44O       0.075300
     16 CAK         -3.1030     0.7790    -0.5020 c3         1 44O      -0.061400
     17 CAI         -2.1930    -0.1980     0.2310 c3         1 44O      -0.079400
     18 CAH         -1.0240    -0.6410    -0.6360 c3         1 44O      -0.065400
     19 CAJ         -0.1150    -1.6170     0.0980 c3         1 44O      -0.157400
     20 CAZ          0.9960    -2.1430    -0.7690 c          1 44O       0.638100
     21 OAB          1.4580    -1.5690    -1.7230 o          1 44O      -0.519100
     22 NAV          1.4600    -3.3880    -0.3790 ns         1 44O      -0.625300
     23 SBK          2.6080    -4.2440    -1.2150 s6         1 44O       1.445500
     24 OAD          2.7790    -5.4690    -0.4730 o          1 44O      -0.541000
     25 OAE          2.3020    -4.2660    -2.6190 o          1 44O      -0.541000
     26 CAN          4.5960    -3.2200     0.1530 c3         1 44O       0.214600
     27 CBE          4.8930    -1.7640     0.4020 c6         1 44O       0.161300
     28 OAX          3.6800    -1.1250     0.7660 os         1 44O      -0.478000
     29 CAL          5.9330    -1.6010     1.5000 c6         1 44O       0.119800
     30 NAS          6.1170    -0.1810     1.7290 n7         1 44O      -0.859400
     31 CAM          4.8820     0.4390     2.1570 c6         1 44O       0.113800
     32 CBG          3.8610     0.2400     1.0460 c6         1 44O       0.320300
     33 N9           2.5780     0.7850     1.3960 na         1 44O      -0.285300
     34 N7           0.7500     1.2370     2.5950 nd         1 44O      -0.554100
     35 C2           1.1250     2.9060    -1.0120 ca         1 44O       0.186900
     36 N6          -1.3490     3.1640     1.4780 nv         1 44O      -1.067900
     37 H1           2.2430    -0.0530     3.3440 h5         1 44O       0.068800
     38 H3          -4.8160     2.2470    -2.4270 hn         1 44O       0.339500
     39 H4          -8.3520     2.3290    -0.5000 hn         1 44O       0.341500
     40 H5          -6.5310     3.4870     0.9560 h1         1 44O       0.067700
     41 H6          -6.1700     1.7240     2.4300 h1         1 44O       0.076200
     42 H7          -7.5410     1.0250     1.5660 h1         1 44O       0.076200
     43 H8          -3.7920     1.7410     1.2810 h1         1 44O       0.063700
     44 H9          -3.5220     0.3000    -1.3910 hc         1 44O       0.059200
     45 H10         -2.5060     1.6260    -0.8570 hc         1 44O       0.059200
     46 H11         -1.8220     0.2670     1.1490 hc         1 44O       0.047200
     47 H12         -2.7640    -1.0780     0.5450 hc         1 44O       0.047200
     48 H13         -1.4060    -1.1150    -1.5450 hc         1 44O       0.056700
     49 H14         -0.4530     0.2310    -0.9610 hc         1 44O       0.056700
     50 H15          0.3440    -1.1350     0.9670 hc         1 44O       0.064700
     51 H16         -0.6980    -2.4510     0.4960 hc         1 44O       0.064700
     52 H17          1.0550    -3.8630     0.4190 hn         1 44O       0.343500
     53 H18          4.0160    -3.6400     0.9770 h1         1 44O       0.064700
     54 H19          5.5240    -3.7850     0.0660 h1         1 44O       0.064700
     55 H20          5.2950    -1.3100    -0.5150 h1         1 44O       0.089700
     56 H21          5.6070    -2.1470     2.4010 h1         1 44O       0.047700
     57 H22          6.8760    -2.0380     1.1710 h1         1 44O       0.047700
     58 H23          6.8390    -0.0270     2.4200 hn         1 44O       0.430000
     59 H25          4.4970     0.0180     3.0990 h1         1 44O       0.050700
     60 H26          5.0390     1.5080     2.3090 h1         1 44O       0.050700
     61 H27          4.1980     0.7760     0.1500 h2         1 44O       0.106700
     62 H28          1.2650     3.3310    -2.0000 h5         1 44O       0.053100
     63 H29         -1.5040     2.9000     2.4350 hn         1 44O       0.503000
     64 H30         -1.9360     3.8810     1.0870 hn         1 44O       0.503000
     65 OAW          3.9020    -3.3440    -1.1080 os         1 44O      -0.558700
     66 H2          -4.4980     3.3750    -0.2640 h1         1 44O       0.058700
@<TRIPOS>BOND
     1     1     2 ar  
     2     1     6 ar  
     3     1    33 1   
     4     2     3 ar  
     5     2    34 1   
     6     3     5 ar  
     7     3    36 1   
     8     4    33 1   
     9     4    34 2   
    10     4    37 1   
    11     5    35 ar  
    12     6    35 ar  
    13     7     8 1   
    14     7    12 1   
    15     7    15 1   
    16     7    66 1   
    17     8     9 1   
    18     8    38 1   
    19     9    10 2   
    20     9    11 1   
    21    11    12 1   
    22    11    39 1   
    23    12    13 1   
    24    12    40 1   
    25    13    14 1   
    26    13    41 1   
    27    13    42 1   
    28    14    15 1   
    29    15    16 1   
    30    15    43 1   
    31    16    17 1   
    32    16    44 1   
    33    16    45 1   
    34    17    18 1   
    35    17    46 1   
    36    17    47 1   
    37    18    19 1   
    38    18    48 1   
    39    18    49 1   
    40    19    20 1   
    41    19    50 1   
    42    19    51 1   
    43    20    21 2   
    44    20    22 1   
    45    22    23 1   
    46    22    52 1   
    47    23    24 2   
    48    23    25 2   
    49    23    65 1   
    50    26    27 1   
    51    26    53 1   
    52    26    54 1   
    53    26    65 1   
    54    27    28 1   
    55    27    29 1   
    56    27    55 1   
    57    28    32 1   
    58    29    30 1   
    59    29    56 1   
    60    29    57 1   
    61    30    31 1   
    62    30    58 1   
    63    31    32 1   
    64    31    59 1   
    65    31    60 1   
    66    32    33 1   
    67    32    61 1   
    68    35    62 1   
    69    36    63 1   
    70    36    64 1   
@<TRIPOS>SUBSTRUCTURE
     1 44O         1 TEMP              0 ****  ****    0 ROOT
