@<TRIPOS>MOLECULE
44P
   38    39     1     0     0
SMALL
bcc


@<TRIPOS>ATOM
      1 N1          -2.4960     0.2940     0.2950 n          1 44P      -0.375000
      2 C2          -3.5240     1.0210     0.8600 c          1 44P       0.825500
      3 O2          -4.4530     0.5170     1.4590 o          1 44P      -0.722500
      4 N3          -3.4220     2.3760     0.6900 ns         1 44P      -0.612500
      5 C4          -2.4010     3.0890     0.0740 c          1 44P       0.727700
      6 O4          -2.4430     4.3070     0.0400 o          1 44P      -0.646500
      7 C5          -1.3720     2.2530    -0.4830 cc         1 44P      -0.277200
      8 C6          -1.4710     0.9190    -0.3650 cd         1 44P       0.019600
      9 PA           2.0560    -0.5140    -0.8320 p5         1 44P       1.248600
     10 PB           2.5660     2.4290     0.1140 p5         1 44P       1.179700
     11 C1          -2.4330    -1.1390     0.5370 c5         1 44P       0.325500
     12 O1A          1.0850    -0.1970    -1.9490 o          1 44P      -0.849500
     13 O1B          1.7570     2.9110    -1.0990 o          1 44P      -0.947833
     14 C7          -2.7060    -2.0130    -0.6820 c5         1 44P       0.041100
     15 O6          -4.0820    -2.1350    -0.8880 oh         1 44P      -0.589800
     16 O2A          3.4830    -0.8420    -1.1860 o          1 44P      -0.849500
     17 O2B          2.2780     3.2120     1.4020 o          1 44P      -0.947833
     18 C3          -1.9980    -3.3070    -0.2610 c5         1 44P       0.069100
     19 O3          -2.7640    -4.0140     0.6800 oh         1 44P      -0.602800
     20 C3A          1.9630     0.6970     0.5040 c3         1 44P      -0.424800
     21 O3B          4.0630     2.2810    -0.1800 o          1 44P      -0.947833
     22 C8          -0.7530    -2.7470     0.4160 c5         1 44P       0.125100
     23 O7          -1.1390    -1.4730     0.9490 os         1 44P      -0.361600
     24 C9           0.3920    -2.6170    -0.5800 c3         1 44P       0.204400
     25 O5           1.4620    -1.8890    -0.0480 os         1 44P      -0.558200
     26 H5          -0.4760     2.6760    -0.9240 ha         1 44P       0.290000
     27 H6          -0.7030     0.2890    -0.8010 h4         1 44P       0.246000
     28 H1          -3.1710    -1.3520     1.3140 h2         1 44P       0.078700
     29 H2          -2.1990    -1.5950    -1.5610 h1         1 44P       0.092700
     30 HO2         -4.2360    -2.4320    -1.7900 ho         1 44P       0.387000
     31 H3          -1.7440    -3.9330    -1.1270 h1         1 44P       0.038700
     32 HO3         -3.6680    -4.0650     0.3490 ho         1 44P       0.393000
     33 H3A          0.9250     0.7530     0.8400 hc         1 44P       0.024200
     34 H3AA         2.5410     0.3160     1.3540 hc         1 44P       0.024200
     35 H4          -0.4430    -3.3800     1.2540 h1         1 44P       0.068700
     36 H7           0.7120    -3.6380    -0.8280 h1         1 44P       0.004700
     37 H5'A         0.0330    -2.1670    -1.5100 h1         1 44P       0.004700
     38 HN3         -4.1770     2.9150     1.0960 hn         1 44P       0.294500
@<TRIPOS>BOND
     1     1     2 1   
     2     1     8 1   
     3     1    11 1   
     4     2     3 2   
     5     2     4 1   
     6     4     5 1   
     7     4    38 1   
     8     5     6 2   
     9     5     7 1   
    10     7     8 2   
    11     7    26 1   
    12     8    27 1   
    13     9    12 1   
    14     9    16 1   
    15     9    20 1   
    16     9    25 1   
    17    10    13 1   
    18    10    17 1   
    19    10    20 1   
    20    10    21 1   
    21    11    14 1   
    22    11    23 1   
    23    11    28 1   
    24    14    15 1   
    25    14    18 1   
    26    14    29 1   
    27    15    30 1   
    28    18    19 1   
    29    18    22 1   
    30    18    31 1   
    31    19    32 1   
    32    20    33 1   
    33    20    34 1   
    34    22    23 1   
    35    22    24 1   
    36    22    35 1   
    37    24    25 1   
    38    24    36 1   
    39    24    37 1   
@<TRIPOS>SUBSTRUCTURE
     1 44P         1 TEMP              0 ****  ****    0 ROOT
