@<TRIPOS>MOLECULE
44P
   38    39     1     0     0
SMALL
No Charge or Current Charge


@<TRIPOS>ATOM
      1 N1          -3.0990     0.2740     0.5550 n          1 44P      -0.308000
      2 C2          -4.3760     0.5530     1.0840 c          1 44P       0.616000
      3 O2          -5.0790    -0.2800     1.6340 o          1 44P      -0.647000
      4 N3          -4.8110     1.8370     0.9590 ns         1 44P      -0.478500
      5 C4          -4.1600     2.8920     0.4030 c          1 44P       0.585200
      6 O4          -4.6570     4.0030     0.3460 o          1 44P      -0.571000
      7 C5          -2.8320     2.5610    -0.0980 cc         1 44P      -0.327200
      8 C6          -2.3160     1.2840    -0.0150 cd         1 44P      -0.030400
      9 PA           2.5100    -0.9060     0.3350 p5         1 44P       1.406400
     10 PB           4.1810     1.1480    -0.7480 p5         1 44P       1.337500
     11 C1          -2.5960    -1.1230     0.6420 c5         1 44P       0.348700
     12 O1A          3.3680    -1.8510    -0.4400 o          1 44P      -0.849500
     13 O1B          3.4260     0.9530    -2.0140 o          1 44P      -0.947833
     14 C7          -2.8040    -1.8030    -0.7570 c5         1 44P       0.064300
     15 O6          -4.1170    -2.3700    -0.9700 oh         1 44P      -0.712000
     16 O2A          2.1040    -1.4800     1.6530 o          1 44P      -0.849500
     17 O2B          4.4610     2.5980    -0.5500 o          1 44P      -0.947833
     18 C3          -1.7200    -2.9140    -0.6540 c5         1 44P       0.092300
     19 O3          -2.1800    -3.9830     0.1830 oh         1 44P      -0.725000
     20 C3A          3.2720     0.6690     0.6990 c3         1 44P      -0.740400
     21 O3B          5.4840     0.4260    -0.7560 o          1 44P      -0.947833
     22 C8          -0.5400    -2.0970    -0.0220 c5         1 44P       0.148300
     23 O7          -1.1710    -1.1520     0.8900 os         1 44P      -0.408000
     24 C9           0.3110    -1.3380    -1.0920 c3         1 44P       0.227600
     25 O5           1.2190    -0.3980    -0.4930 os         1 44P      -0.581400
     26 H5          -2.2840     3.3930    -0.5310 ha         1 44P       0.340000
     27 H6          -1.3240     0.9850    -0.3560 h4         1 44P       0.296000
     28 H1          -3.1260    -1.6580     1.4400 h2         1 44P       0.078700
     29 H2          -2.5590    -1.0930    -1.5610 h1         1 44P       0.092700
     30 HO2         -4.2720    -2.4110    -1.9430 ho         1 44P       0.486000
     31 H3          -1.4500    -3.3020    -1.6460 h1         1 44P       0.038700
     32 HO3         -3.1620    -3.9770     0.0620 ho         1 44P       0.492000
     33 H3A          2.4990     1.4060     0.9330 hc         1 44P       0.024200
     34 H3AA         3.9440     0.5710     1.5550 hc         1 44P       0.024200
     35 H4           0.1230    -2.7600     0.5470 h1         1 44P       0.068700
     36 H7           0.8620    -2.0750    -1.6900 h1         1 44P       0.004700
     37 H5'A        -0.3590    -0.8060    -1.7790 h1         1 44P       0.004700
     38 HN3         -5.7280     2.0290     1.3290 hn         1 44P       0.294500
@<TRIPOS>BOND
     1     1     2 1   
     2     1     8 1   
     3     1    11 1   
     4     2     3 2   
     5     2     4 1   
     6     4     5 1   
     7     4    38 1   
     8     5     6 2   
     9     5     7 1   
    10     7     8 2   
    11     7    26 1   
    12     8    27 1   
    13     9    12 1   
    14     9    16 1   
    15     9    20 1   
    16     9    25 1   
    17    10    13 1   
    18    10    17 1   
    19    10    20 1   
    20    10    21 1   
    21    11    14 1   
    22    11    23 1   
    23    11    28 1   
    24    14    15 1   
    25    14    18 1   
    26    14    29 1   
    27    15    30 1   
    28    18    19 1   
    29    18    22 1   
    30    18    31 1   
    31    19    32 1   
    32    20    33 1   
    33    20    34 1   
    34    22    23 1   
    35    22    24 1   
    36    22    35 1   
    37    24    25 1   
    38    24    36 1   
    39    24    37 1   
@<TRIPOS>SUBSTRUCTURE
     1 44P         1 TEMP              0 ****  ****    0 ROOT
