@<TRIPOS>MOLECULE
44Q
   66    70     1     0     0
SMALL
abcg2


@<TRIPOS>ATOM
      1 C2           0.6350    -3.3370    -0.4590 ca         1 44Q       0.180900
      2 C4           1.3620    -1.3210    -0.9320 ca         1 44Q       0.129500
      3 C5           0.4640    -1.1750    -1.9770 ca         1 44Q      -0.099600
      4 C8           1.5520     0.6310    -1.8950 cc         1 44Q       0.407700
      5 CBI         -3.5770    -3.4220     0.3580 c5         1 44Q       0.093700
      6 NAU         -3.6580    -3.5100     1.7940 ns         1 44Q      -0.507900
      7 CBA         -4.7480    -4.2000     2.2310 c          1 44Q       0.612000
      8 OAC         -5.0120    -4.4760     3.3920 o          1 44Q      -0.578000
      9 NAT         -5.4790    -4.5280     1.1370 ns         1 44Q      -0.526900
     10 CBF         -4.9310    -4.0410    -0.1000 c5         1 44Q       0.104700
     11 CAO         -5.7800    -2.9480    -0.7620 c5         1 44Q       0.030600
     12 SAY         -5.2180    -1.3720    -0.0690 ss         1 44Q      -0.410000
     13 CBH         -3.5020    -1.9800    -0.1530 c5         1 44Q       0.076300
     14 CAK         -2.5240    -1.0890     0.5900 c3         1 44Q      -0.057400
     15 CAI         -2.3250     0.2660    -0.0760 c3         1 44Q      -0.079400
     16 CAH         -1.2340     1.0860     0.5980 c3         1 44Q      -0.064400
     17 CAJ         -1.0110     2.4110    -0.1140 c3         1 44Q      -0.160400
     18 CAZ          0.1050     3.2310     0.4780 c          1 44Q       0.633100
     19 OAB          0.5120     3.1260     1.6120 o          1 44Q      -0.552100
     20 NAV          0.6370     4.1540    -0.3930 ns         1 44Q      -0.619300
     21 SBK          1.8220     5.2610     0.0500 s6         1 44Q       1.310900
     22 OAD          2.0790     5.9770    -1.1810 o          1 44Q      -0.538000
     23 OAE          1.4010     5.9580     1.2420 o          1 44Q      -0.538000
     24 NAW          3.1450     4.4070     0.4320 n7         1 44Q      -0.907300
     25 CAN          3.8070     3.5880    -0.5820 c3         1 44Q       0.224800
     26 CBE          4.2010     2.2360    -0.0310 c5         1 44Q       0.142300
     27 OAX          3.0340     1.5240     0.3880 os         1 44Q      -0.449000
     28 CAL          4.8650     1.3340    -1.0620 c5         1 44Q      -0.156400
     29 CAM          4.5200    -0.0530    -0.5360 c5         1 44Q       0.131300
     30 CBG          3.1190     0.1740     0.0490 c5         1 44Q       0.319300
     31 N9           2.0600    -0.1480    -0.8920 na         1 44Q      -0.302300
     32 N7           0.5980     0.0550    -2.5650 nd         1 44Q      -0.556100
     33 N3           1.4930    -2.3830    -0.1410 nb         1 44Q      -0.213000
     34 N1          -0.2790    -3.3380    -1.4260 nb         1 44Q      -0.310000
     35 C6          -0.3970    -2.2620    -2.2130 ca         1 44Q       0.449900
     36 O1           5.3370    -0.4320     0.5440 oh         1 44Q      -0.703000
     37 H1           0.6770    -4.2390     0.1420 h5         1 44Q       0.050100
     38 H2          -1.3980    -1.4820    -3.8140 hn         1 44Q       0.507000
     39 H3          -1.8740    -3.0740    -3.3530 hn         1 44Q       0.507000
     40 H4           1.9160     1.6280    -2.0850 h5         1 44Q       0.064800
     41 H6          -2.8390    -3.4480     2.3770 hn         1 44Q       0.336500
     42 H7          -6.4000    -4.9250     1.2120 hn         1 44Q       0.342500
     43 H8          -4.7830    -4.8580    -0.8100 h1         1 44Q       0.067700
     44 H9          -5.6240    -2.9520    -1.8420 h1         1 44Q       0.074700
     45 H10         -6.8440    -3.0860    -0.5740 h1         1 44Q       0.074700
     46 H11         -3.2150    -2.0190    -1.2090 h1         1 44Q       0.067700
     47 H12         -2.8530    -0.9550     1.6240 hc         1 44Q       0.055700
     48 H13         -1.5610    -1.6100     0.6390 hc         1 44Q       0.055700
     49 H14         -2.0680     0.1140    -1.1290 hc         1 44Q       0.046200
     50 H15         -3.2630     0.8300    -0.0670 hc         1 44Q       0.046200
     51 H16         -1.4960     1.2630     1.6430 hc         1 44Q       0.056200
     52 H17         -0.3040     0.5100     0.6060 hc         1 44Q       0.056200
     53 H18         -0.8200     2.2430    -1.1770 hc         1 44Q       0.067700
     54 H19         -1.9180     3.0250    -0.0680 hc         1 44Q       0.067700
     55 H20          0.2600     4.2570    -1.3280 hn         1 44Q       0.345500
     56 H21          3.1330     4.0480     1.3800 hn         1 44Q       0.520000
     57 H22          3.1590     3.4520    -1.4520 h1         1 44Q       0.059200
     58 H23          4.7060     4.0960    -0.9330 h1         1 44Q       0.059200
     59 H24          4.8620     2.3730     0.8330 h1         1 44Q       0.081700
     60 H25          4.4390     1.4890    -2.0570 hc         1 44Q       0.070200
     61 H26          5.9390     1.5020    -1.1420 hc         1 44Q       0.070200
     62 H27          4.5080    -0.8120    -1.3250 h1         1 44Q       0.072700
     63 H28          2.9540    -0.4640     0.9220 h2         1 44Q       0.134700
     64 H29          6.2510    -0.4500     0.2430 ho         1 44Q       0.516000
     65 N6          -1.3250    -2.2520    -3.1720 nv         1 44Q      -1.065900
     66 H5          -2.7200    -3.9800    -0.0300 h1         1 44Q       0.075700
@<TRIPOS>BOND
     1     1    33 ar  
     2     1    34 ar  
     3     1    37 1   
     4     2     3 ar  
     5     2    31 1   
     6     2    33 ar  
     7     3    32 1   
     8     3    35 ar  
     9     4    31 1   
    10     4    32 2   
    11     4    40 1   
    12     5     6 1   
    13     5    10 1   
    14     5    13 1   
    15     5    66 1   
    16     6     7 1   
    17     6    41 1   
    18     7     8 2   
    19     7     9 1   
    20     9    10 1   
    21     9    42 1   
    22    10    11 1   
    23    10    43 1   
    24    11    12 1   
    25    11    44 1   
    26    11    45 1   
    27    12    13 1   
    28    13    14 1   
    29    13    46 1   
    30    14    15 1   
    31    14    47 1   
    32    14    48 1   
    33    15    16 1   
    34    15    49 1   
    35    15    50 1   
    36    16    17 1   
    37    16    51 1   
    38    16    52 1   
    39    17    18 1   
    40    17    53 1   
    41    17    54 1   
    42    18    19 2   
    43    18    20 1   
    44    20    21 1   
    45    20    55 1   
    46    21    22 2   
    47    21    23 2   
    48    21    24 1   
    49    24    25 1   
    50    24    56 1   
    51    25    26 1   
    52    25    57 1   
    53    25    58 1   
    54    26    27 1   
    55    26    28 1   
    56    26    59 1   
    57    27    30 1   
    58    28    29 1   
    59    28    60 1   
    60    28    61 1   
    61    29    30 1   
    62    29    36 1   
    63    29    62 1   
    64    30    31 1   
    65    30    63 1   
    66    34    35 ar  
    67    35    65 1   
    68    36    64 1   
    69    38    65 1   
    70    39    65 1   
@<TRIPOS>SUBSTRUCTURE
     1 44Q         1 TEMP              0 ****  ****    0 ROOT
