@<TRIPOS>MOLECULE
44Q
   66    70     1     0     0
SMALL
No Charge or Current Charge


@<TRIPOS>ATOM
      1 C2           0.4570    -2.7110     1.2620 ca         1 44Q       0.180900
      2 C4           1.7540    -1.5600    -0.2290 ca         1 44Q       0.129500
      3 C5           1.1000    -2.1710    -1.2680 ca         1 44Q      -0.099600
      4 C8           2.5620    -0.8970    -2.1970 cc         1 44Q       0.407700
      5 CBI         -4.1630    -2.9550    -0.9940 c5         1 44Q       0.093700
      6 NAU         -3.4100    -3.7070     0.0160 ns         1 44Q      -0.507900
      7 CBA         -4.1740    -4.5850     0.7030 c          1 44Q       0.612000
      8 OAC         -3.7790    -5.3210     1.5850 o          1 44Q      -0.578000
      9 NAT         -5.4440    -4.5300     0.2410 ns         1 44Q      -0.526900
     10 CBF         -5.6350    -3.5040    -0.7890 c5         1 44Q       0.104700
     11 CAO         -6.4890    -2.3930    -0.0890 c5         1 44Q       0.030600
     12 SAY         -5.3110    -1.3380     0.8740 ss         1 44Q      -0.410000
     13 CBH         -4.1470    -1.4430    -0.5630 c5         1 44Q       0.076300
     14 CAK         -2.7570    -0.8370    -0.2280 c3         1 44Q      -0.057400
     15 CAI         -2.7810     0.6800     0.0680 c3         1 44Q      -0.079400
     16 CAH         -1.3800     1.2760     0.3290 c3         1 44Q      -0.064400
     17 CAJ         -1.4450     2.7580     0.7720 c3         1 44Q      -0.160400
     18 CAZ         -0.0600     3.3500     1.0310 c          1 44Q       0.633100
     19 OAB          0.6630     2.9640     1.9340 o          1 44Q      -0.552100
     20 NAV          0.3150     4.3490     0.1980 ns         1 44Q      -0.619300
     21 SBK          1.6650     5.2880     0.3270 s6         1 44Q       1.310900
     22 OAD          1.8680     5.9520    -0.9590 o          1 44Q      -0.538000
     23 OAE          1.5810     6.0700     1.5590 o          1 44Q      -0.538000
     24 NAW          2.9150     4.2380     0.5450 n7         1 44Q      -0.907300
     25 CAN          3.5370     3.6410    -0.6500 c3         1 44Q       0.224800
     26 CBE          4.2280     2.3010    -0.3030 c5         1 44Q       0.142300
     27 OAX          3.2350     1.3410     0.1250 os         1 44Q      -0.449000
     28 CAL          4.9300     1.5880    -1.4830 c5         1 44Q      -0.156400
     29 CAM          5.1190     0.1790    -0.8650 c5         1 44Q       0.131300
     30 CBG          3.7400     0.0030    -0.1170 c5         1 44Q       0.319300
     31 N9           2.6970    -0.7590    -0.8100 na         1 44Q      -0.302300
     32 N7           1.5870    -1.7690    -2.5140 nd         1 44Q      -0.556100
     33 N3           1.4500    -1.8110     1.0600 nb         1 44Q      -0.213000
     34 N1          -0.2400    -3.3790     0.3100 nb         1 44Q      -0.310000
     35 C6           0.0850    -3.0990    -0.9610 ca         1 44Q       0.449900
     36 O1           6.2440     0.1690     0.0290 oh         1 44Q      -0.703000
     37 H1           0.1980    -2.9260     2.2980 h5         1 44Q       0.050100
     38 H2          -0.2160    -3.7170    -2.8610 hn         1 44Q       0.507000
     39 H3          -1.0240    -4.6610    -1.6690 hn         1 44Q       0.507000
     40 H4           3.1930    -0.3730    -2.9030 h5         1 44Q       0.064800
     41 H6          -2.4250    -3.6210     0.2330 hn         1 44Q       0.336500
     42 H7          -6.1520    -5.1240     0.6530 hn         1 44Q       0.342500
     43 H8          -6.0950    -3.8940    -1.7070 h1         1 44Q       0.067700
     44 H9          -6.9810    -1.7630    -0.8430 h1         1 44Q       0.074700
     45 H10         -7.2720    -2.8040     0.5610 h1         1 44Q       0.074700
     46 H11         -4.5770    -0.8450    -1.3780 h1         1 44Q       0.067700
     47 H12         -2.3230    -1.3480     0.6390 hc         1 44Q       0.055700
     48 H13         -2.0780    -1.0160    -1.0700 hc         1 44Q       0.055700
     49 H14         -3.2450     1.2070    -0.7750 hc         1 44Q       0.046200
     50 H15         -3.4130     0.8640     0.9460 hc         1 44Q       0.046200
     51 H16         -0.8760     0.6880     1.1080 hc         1 44Q       0.056200
     52 H17         -0.7710     1.1890    -0.5800 hc         1 44Q       0.056200
     53 H18         -1.9680     3.3430     0.0060 hc         1 44Q       0.067700
     54 H19         -2.0130     2.8130     1.7090 hc         1 44Q       0.067700
     55 H20         -0.2940     4.6550    -0.5420 hn         1 44Q       0.345500
     56 H21          2.3810     3.4980     1.0090 hn         1 44Q       0.520000
     57 H22          2.7860     3.4280    -1.4240 h1         1 44Q       0.059200
     58 H23          4.2750     4.3280    -1.0880 h1         1 44Q       0.059200
     59 H24          4.9330     2.4720     0.5230 h1         1 44Q       0.081700
     60 H25          4.2960     1.5680    -2.3770 hc         1 44Q       0.070200
     61 H26          5.8760     2.0660    -1.7630 hc         1 44Q       0.070200
     62 H27          5.2530    -0.5890    -1.6410 h1         1 44Q       0.072700
     63 H28          3.9090    -0.5140     0.8370 h2         1 44Q       0.134700
     64 H29          7.0590     0.2170    -0.5250 ho         1 44Q       0.516000
     65 N6          -0.5980    -3.7750    -1.9210 nv         1 44Q      -1.065900
     66 H5          -3.7810    -3.1150    -2.0110 h1         1 44Q       0.075700
@<TRIPOS>BOND
     1     1    33 ar  
     2     1    34 ar  
     3     1    37 1   
     4     2     3 ar  
     5     2    31 1   
     6     2    33 ar  
     7     3    32 1   
     8     3    35 ar  
     9     4    31 1   
    10     4    32 2   
    11     4    40 1   
    12     5     6 1   
    13     5    10 1   
    14     5    13 1   
    15     5    66 1   
    16     6     7 1   
    17     6    41 1   
    18     7     8 2   
    19     7     9 1   
    20     9    10 1   
    21     9    42 1   
    22    10    11 1   
    23    10    43 1   
    24    11    12 1   
    25    11    44 1   
    26    11    45 1   
    27    12    13 1   
    28    13    14 1   
    29    13    46 1   
    30    14    15 1   
    31    14    47 1   
    32    14    48 1   
    33    15    16 1   
    34    15    49 1   
    35    15    50 1   
    36    16    17 1   
    37    16    51 1   
    38    16    52 1   
    39    17    18 1   
    40    17    53 1   
    41    17    54 1   
    42    18    19 2   
    43    18    20 1   
    44    20    21 1   
    45    20    55 1   
    46    21    22 2   
    47    21    23 2   
    48    21    24 1   
    49    24    25 1   
    50    24    56 1   
    51    25    26 1   
    52    25    57 1   
    53    25    58 1   
    54    26    27 1   
    55    26    28 1   
    56    26    59 1   
    57    27    30 1   
    58    28    29 1   
    59    28    60 1   
    60    28    61 1   
    61    29    30 1   
    62    29    36 1   
    63    29    62 1   
    64    30    31 1   
    65    30    63 1   
    66    34    35 ar  
    67    35    65 1   
    68    36    64 1   
    69    38    65 1   
    70    39    65 1   
@<TRIPOS>SUBSTRUCTURE
     1 44Q         1 TEMP              0 ****  ****    0 ROOT
