@<TRIPOS>MOLECULE
44R
   61    64     1     0     0
SMALL
No Charge or Current Charge


@<TRIPOS>ATOM
      1 C2           1.2120    -3.0130    -1.5220 ca         1 44R       0.172900
      2 C4           1.9880    -1.5140     0.0200 ca         1 44R       0.124500
      3 C5           1.1610    -2.0600     0.9700 ca         1 44R      -0.085600
      4 C6           0.3500    -3.1500     0.5950 ca         1 44R       0.410900
      5 N1           0.3740    -3.6350    -0.6570 nb         1 44R      -0.285000
      6 N3           2.0330    -1.9700    -1.2470 nb         1 44R      -0.209000
      7 C8           2.2280    -0.4920     1.9990 cc         1 44R       0.437700
      8 CBI         -3.3430    -2.8880    -1.4530 c5         1 44R       0.100700
      9 NAU         -2.9890    -3.5700    -0.2030 ns         1 44R      -0.518900
     10 CBA         -3.9680    -4.3800     0.2520 c          1 44R       0.613000
     11 OAC         -3.9060    -5.0680     1.2520 o          1 44R      -0.589000
     12 NAT         -5.0240    -4.3240    -0.5910 ns         1 44R      -0.522900
     13 CBF         -4.8430    -3.3480    -1.6680 c5         1 44R       0.101700
     14 CAO         -5.7920    -2.1580    -1.2890 c5         1 44R       0.029600
     15 SAY         -4.8590    -1.0700    -0.1150 ss         1 44R      -0.414000
     16 CBH         -3.3590    -1.3440    -1.1630 c5         1 44R       0.074300
     17 CAK         -2.0740    -0.7540    -0.5220 c3         1 44R      -0.059400
     18 CAI         -2.1110     0.7780    -0.3250 c3         1 44R      -0.075400
     19 CAH         -0.7520     1.3690     0.1070 c3         1 44R      -0.071400
     20 CAJ         -0.8440     2.8710     0.4730 c3         1 44R      -0.157400
     21 CAZ          0.5360     3.5020     0.6570 c          1 44R       0.637100
     22 OAB          1.2980     3.1720     1.5510 o          1 44R      -0.573100
     23 NAV          0.8600     4.4600    -0.2440 ns         1 44R      -0.612300
     24 SBK          2.2510     5.3430    -0.2940 s6         1 44R       1.297900
     25 OAD          2.3200     5.9980    -1.5980 o          1 44R      -0.534000
     26 OAE          2.3660     6.1230     0.9370 o          1 44R      -0.534000
     27 NAW          3.4700     4.2350    -0.2370 n7         1 44R      -0.891300
     28 CAN          3.8010     3.5070    -1.4790 c3         1 44R       0.209800
     29 CBE          4.3990     2.1280    -1.1320 c3         1 44R       0.148600
     30 OAX          3.4030     1.4080    -0.3790 os         1 44R      -0.481000
     31 N9           2.6680    -0.5310     0.6780 na         1 44R      -0.291300
     32 N7           1.2890    -1.4350     2.2180 nd         1 44R      -0.546100
     33 N6          -0.4780    -3.7820     1.4700 nv         1 44R      -1.041900
     34 H1           1.2350    -3.3970    -2.5400 h5         1 44R       0.050100
     35 H2           2.6380     0.1940     2.7320 h5         1 44R       0.081800
     36 H4          -2.1250    -3.4840     0.3260 hn         1 44R       0.355500
     37 H5          -5.8530    -4.8690    -0.3900 hn         1 44R       0.339500
     38 H6          -5.0420    -3.7620    -2.6660 h1         1 44R       0.069700
     39 H7          -6.0360    -1.5700    -2.1840 h1         1 44R       0.075700
     40 H8          -6.7400    -2.4930    -0.8470 h1         1 44R       0.075700
     41 H9          -3.5200    -0.8140    -2.1120 h1         1 44R       0.066700
     42 H10         -1.8860    -1.2200     0.4520 hc         1 44R       0.056700
     43 H11         -1.2160    -1.0040    -1.1590 hc         1 44R       0.056700
     44 H12         -2.4270     1.2580    -1.2600 hc         1 44R       0.044700
     45 H13         -2.8660     1.0250     0.4310 hc         1 44R       0.044700
     46 H14         -0.3670     0.8130     0.9710 hc         1 44R       0.059700
     47 H15         -0.0280     1.2320    -0.7070 hc         1 44R       0.059700
     48 H16         -1.3950     3.4040    -0.3120 hc         1 44R       0.066700
     49 H17         -1.3940     2.9650     1.4160 hc         1 44R       0.066700
     50 H18          0.2220     4.7060    -0.9820 hn         1 44R       0.346500
     51 H19          3.0000     3.5600     0.3720 hn         1 44R       0.505000
     52 H20          2.9040     3.3280    -2.0910 h1         1 44R       0.066700
     53 H21          4.5110     4.0780    -2.0930 h1         1 44R       0.066700
     54 H22          4.6530     1.5950    -2.0580 h1         1 44R       0.046700
     55 H23          5.3170     2.2660    -0.5450 h1         1 44R       0.046700
     56 H26         -0.3570    -3.5120     2.4440 hn         1 44R       0.491500
     57 H27         -0.6370    -4.7750     1.3240 hn         1 44R       0.491500
     58 CBG          3.8400     0.1350     0.1110 c3         1 44R       0.315600
     59 H3          -2.6830    -3.1630    -2.2860 h1         1 44R       0.070700
     60 H24          4.2430    -0.4900    -0.6950 h2         1 44R       0.057200
     61 H25          4.6000     0.2440     0.8940 h2         1 44R       0.057200
@<TRIPOS>BOND
     1     1     5 ar  
     2     1     6 ar  
     3     1    34 1   
     4     2     3 ar  
     5     2     6 ar  
     6     2    31 1   
     7     3     4 ar  
     8     3    32 1   
     9     4     5 ar  
    10     4    33 1   
    11     7    31 1   
    12     7    32 2   
    13     7    35 1   
    14     8     9 1   
    15     8    13 1   
    16     8    16 1   
    17     8    59 1   
    18     9    10 1   
    19     9    36 1   
    20    10    11 2   
    21    10    12 1   
    22    12    13 1   
    23    12    37 1   
    24    13    14 1   
    25    13    38 1   
    26    14    15 1   
    27    14    39 1   
    28    14    40 1   
    29    15    16 1   
    30    16    17 1   
    31    16    41 1   
    32    17    18 1   
    33    17    42 1   
    34    17    43 1   
    35    18    19 1   
    36    18    44 1   
    37    18    45 1   
    38    19    20 1   
    39    19    46 1   
    40    19    47 1   
    41    20    21 1   
    42    20    48 1   
    43    20    49 1   
    44    21    22 2   
    45    21    23 1   
    46    23    24 1   
    47    23    50 1   
    48    24    25 2   
    49    24    26 2   
    50    24    27 1   
    51    27    28 1   
    52    27    51 1   
    53    28    29 1   
    54    28    52 1   
    55    28    53 1   
    56    29    30 1   
    57    29    54 1   
    58    29    55 1   
    59    30    58 1   
    60    31    58 1   
    61    33    56 1   
    62    33    57 1   
    63    58    60 1   
    64    58    61 1   
@<TRIPOS>SUBSTRUCTURE
     1 44R         1 TEMP              0 ****  ****    0 ROOT
