@<TRIPOS>MOLECULE
44R
   61    64     1     0     0
SMALL
bcc


@<TRIPOS>ATOM
      1 C2           1.4290    -3.2070    -1.5650 ca         1 44R       0.698900
      2 C4           2.0910    -1.6140    -0.2050 ca         1 44R       0.452800
      3 C5           1.2540    -2.0530     0.8120 ca         1 44R      -0.216200
      4 C6           0.5000    -3.2010     0.5360 ca         1 44R       0.739200
      5 N1           0.6050    -3.7510    -0.6740 nb         1 44R      -0.811000
      6 N3           2.2110    -2.1510    -1.4130 nb         1 44R      -0.735000
      7 C8           2.3020    -0.4010     1.6010 cc         1 44R       0.437700
      8 CBI         -3.4080    -2.9630    -1.0570 c5         1 44R       0.100700
      9 NAU         -3.2710    -3.4220     0.3010 ns         1 44R      -0.585900
     10 CBA         -4.3260    -4.1600     0.7330 c          1 44R       0.822500
     11 OAC         -4.4360    -4.6970     1.8260 o          1 44R      -0.664500
     12 NAT         -5.2290    -4.2040    -0.2810 ns         1 44R      -0.589900
     13 CBF         -4.8530    -3.4140    -1.4240 c5         1 44R       0.101700
     14 CAO         -5.7230    -2.1670    -1.6230 c5         1 44R      -0.018300
     15 SAY         -4.9630    -0.8480    -0.6410 ss         1 44R      -0.318200
     16 CBH         -3.3250    -1.4370    -1.1820 c5         1 44R       0.026400
     17 CAK         -2.1790    -0.8090    -0.4130 c3         1 44R      -0.059400
     18 CAI         -2.1030     0.7060    -0.5410 c3         1 44R      -0.075400
     19 CAH         -0.8370     1.2620     0.0960 c3         1 44R      -0.071400
     20 CAJ         -0.7850     2.7800     0.0080 c3         1 44R      -0.157400
     21 CAZ          0.4870     3.3510     0.5760 c          1 44R       0.704100
     22 OAB          1.1210     2.8470     1.4770 o          1 44R      -0.573100
     23 NAV          0.8930     4.5240    -0.0140 ns         1 44R      -0.679300
     24 SBK          2.3440     5.2810     0.3730 s6         1 44R       1.439500
     25 OAD          2.4510     6.3350    -0.6120 o          1 44R      -0.604800
     26 OAE          2.3580     5.5770     1.7850 o          1 44R      -0.604800
     27 NAW          3.5150     4.1900     0.0860 n7         1 44R      -0.836100
     28 CAN          3.6990     3.7010    -1.2840 c3         1 44R       0.209800
     29 CBE          4.2570     2.2980    -1.2560 c3         1 44R       0.125400
     30 OAX          3.2820     1.4400    -0.7030 os         1 44R      -0.434600
     31 N9           2.7710    -0.5540     0.3240 na         1 44R      -0.262000
     32 N7           1.4000    -1.2740     1.9330 nd         1 44R      -0.546100
     33 N6          -0.3500    -3.7570     1.4320 nv         1 44R      -0.931500
     34 H1           1.4670    -3.6980    -2.5310 h5         1 44R       0.050100
     35 H2           2.6810     0.3810     2.2430 h5         1 44R       0.081800
     36 H4          -2.3760    -3.4620     0.7710 hn         1 44R       0.355500
     37 H5          -6.1650    -4.5450    -0.1400 hn         1 44R       0.339500
     38 H6          -4.8700    -4.0150    -2.3360 h1         1 44R       0.069700
     39 H7          -5.7330    -1.8800    -2.6760 h1         1 44R       0.075700
     40 H8          -6.7530    -2.3290    -1.3080 h1         1 44R       0.075700
     41 H9          -3.2200    -1.1920    -2.2440 h1         1 44R       0.066700
     42 H10         -2.2440    -1.0830     0.6430 hc         1 44R       0.056700
     43 H11         -1.2480    -1.2440    -0.7930 hc         1 44R       0.056700
     44 H12         -2.1380     0.9900    -1.5970 hc         1 44R       0.044700
     45 H13         -2.9800     1.1640    -0.0710 hc         1 44R       0.044700
     46 H14         -0.7790     0.9490     1.1410 hc         1 44R       0.059700
     47 H15          0.0390     0.8340    -0.4000 hc         1 44R       0.059700
     48 H16         -0.9110     3.1070    -1.0270 hc         1 44R       0.066700
     49 H17         -1.6190     3.2200     0.5660 hc         1 44R       0.066700
     50 H18          0.3740     4.9170    -0.7890 hn         1 44R       0.346500
     51 H19          3.5370     3.4710     0.8010 hn         1 44R       0.449800
     52 H20          2.7600     3.6990    -1.8470 h1         1 44R       0.066700
     53 H21          4.4000     4.3470    -1.8100 h1         1 44R       0.066700
     54 H22          4.5180     2.0000    -2.2780 h1         1 44R       0.046700
     55 H23          5.1810     2.2780    -0.6630 h1         1 44R       0.046700
     56 H26         -0.2530    -3.4790     2.3960 hn         1 44R       0.436300
     57 H27         -0.5540    -4.7370     1.3030 hn         1 44R       0.436300
     58 CBG          3.8070     0.2100    -0.3050 c3         1 44R       0.263100
     59 H3          -2.6570    -3.4210    -1.7090 h1         1 44R       0.070700
     60 H24          4.1820    -0.3740    -1.1520 h2         1 44R       0.057200
     61 H25          4.6270     0.3440     0.4090 h2         1 44R       0.057200
@<TRIPOS>BOND
     1     1     5 ar  
     2     1     6 ar  
     3     1    34 1   
     4     2     3 ar  
     5     2     6 ar  
     6     2    31 1   
     7     3     4 ar  
     8     3    32 1   
     9     4     5 ar  
    10     4    33 1   
    11     7    31 1   
    12     7    32 2   
    13     7    35 1   
    14     8     9 1   
    15     8    13 1   
    16     8    16 1   
    17     8    59 1   
    18     9    10 1   
    19     9    36 1   
    20    10    11 2   
    21    10    12 1   
    22    12    13 1   
    23    12    37 1   
    24    13    14 1   
    25    13    38 1   
    26    14    15 1   
    27    14    39 1   
    28    14    40 1   
    29    15    16 1   
    30    16    17 1   
    31    16    41 1   
    32    17    18 1   
    33    17    42 1   
    34    17    43 1   
    35    18    19 1   
    36    18    44 1   
    37    18    45 1   
    38    19    20 1   
    39    19    46 1   
    40    19    47 1   
    41    20    21 1   
    42    20    48 1   
    43    20    49 1   
    44    21    22 2   
    45    21    23 1   
    46    23    24 1   
    47    23    50 1   
    48    24    25 2   
    49    24    26 2   
    50    24    27 1   
    51    27    28 1   
    52    27    51 1   
    53    28    29 1   
    54    28    52 1   
    55    28    53 1   
    56    29    30 1   
    57    29    54 1   
    58    29    55 1   
    59    30    58 1   
    60    31    58 1   
    61    33    56 1   
    62    33    57 1   
    63    58    60 1   
    64    58    61 1   
@<TRIPOS>SUBSTRUCTURE
     1 44R         1 TEMP              0 ****  ****    0 ROOT
