@<TRIPOS>MOLECULE
44T
   65    68     1     0     0
SMALL
No Charge or Current Charge


@<TRIPOS>ATOM
      1 N1          29.5490    16.3400    25.5930 n7         1 44T      -0.862400
      2 C7          28.8150    17.6140    25.5040 c3         1 44T       0.211100
      3 C8          30.6570    16.1890    24.6370 c3         1 44T       0.159800
      4 N2          37.1490    10.1360    26.8690 na         1 44T      -0.195400
      5 C9          31.3680    14.8390    24.8570 c3         1 44T      -0.082400
      6 O1          37.1180     9.9870    23.6410 oh         1 44T      -0.677000
      7 C1          29.3210    18.4360    28.4240 c3         1 44T      -0.045100
      8 C5          26.3950    17.3440    26.1610 ca         1 44T       0.335900
      9 C6          27.7090    17.6700    26.5490 ca         1 44T      -0.139300
     10 N3          39.0450     8.5430    26.6590 nb         1 44T      -0.228000
     11 C4          25.5630    17.7340    28.2830 ca         1 44T       0.337900
     12 C3          26.8360    18.0790    28.7620 ca         1 44T      -0.170000
     13 C2          27.9410    18.0500    27.8930 ca         1 44T      -0.008300
     14 N4          38.9330     6.6210    28.1310 nb         1 44T      -0.302000
     15 O2          38.2830    12.4460    23.3260 oh         1 44T      -0.683000
     16 C16         36.9840    12.4470    23.9330 c5         1 44T       0.142300
     17 C15         36.6760    11.0410    24.5220 c5         1 44T       0.135300
     18 C14         37.4740    11.1460    25.8570 c5         1 44T       0.275300
     19 C20         37.8810     8.9920    27.1730 ca         1 44T       0.161500
     20 C21         39.5130     7.3770    27.1660 ca         1 44T       0.178900
     21 C22         37.7760     7.0860    28.6230 ca         1 44T       0.433900
     22 N5          37.1910     6.3410    29.5920 nv         1 44T      -1.077900
     23 C19         37.2290     8.2830    28.1510 ca         1 44T      -0.260800
     24 C18         36.0300     8.9880    28.4990 cc         1 44T      -0.211200
     25 C17         35.9990    10.1200    27.7010 cd         1 44T      -0.168100
     26 O           37.1500    12.4630    26.3540 os         1 44T      -0.442000
     27 C13         36.9260    13.3460    25.2220 c5         1 44T       0.135300
     28 C12         35.6040    14.1350    25.4360 c3         1 44T       0.046600
     29 S           34.0870    13.0840    25.6890 ss         1 44T      -0.430000
     30 C11         33.2510    13.2510    24.0410 c3         1 44T       0.056600
     31 C10         32.5490    14.6190    23.8810 c3         1 44T      -0.071400
     32 C           29.5970    19.9470    28.2940 c3         1 44T      -0.085100
     33 N           25.3350    17.3710    27.0020 nb         1 44T      -0.667000
     34 H1          28.8820    15.5760    25.4380 hn         1 44T       0.413000
     35 H3          29.4980    18.4630    25.6470 h1         1 44T       0.036700
     36 H4          28.3720    17.7270    24.5050 h1         1 44T       0.036700
     37 H5          31.3850    17.0020    24.7670 h1         1 44T       0.026200
     38 H6          30.2810    16.2350    23.6060 h1         1 44T       0.026200
     39 H7          30.6440    14.0240    24.7350 hc         1 44T       0.057700
     40 H8          31.7330    14.7960    25.8900 hc         1 44T       0.057700
     41 H9          36.8320     9.1330    24.0440 ho         1 44T       0.514000
     42 H10         29.4060    18.1550    29.4810 hc         1 44T       0.060700
     43 H11         30.1130    17.8790    27.9090 hc         1 44T       0.060700
     44 H12         26.1780    17.0490    25.1340 h4         1 44T       0.012100
     45 H13         24.6970    17.7520    28.9440 h4         1 44T       0.018100
     46 H14         26.9540    18.3670    29.8030 ha         1 44T       0.122000
     47 H15         38.3760    11.5300    22.9660 ho         1 44T       0.501000
     48 H16         36.2250    12.7450    23.1970 h1         1 44T       0.052700
     49 H17         35.6020    10.9340    24.7290 h1         1 44T       0.056700
     50 H18         38.5520    11.0760    25.6630 h2         1 44T       0.120700
     51 H19         40.4520     7.0090    26.7570 h5         1 44T       0.044100
     52 H20         37.7550     5.6270    30.0450 hn         1 44T       0.497000
     53 H21         36.4710     6.7770    30.1610 hn         1 44T       0.497000
     54 H22         35.2760     8.7080    29.2330 ha         1 44T       0.200000
     55 H23         35.2550    10.9130    27.6590 h4         1 44T       0.232000
     56 H24         37.7420    14.0810    25.1960 h1         1 44T       0.064700
     57 H25         35.7290    14.7660    26.3250 h1         1 44T       0.081200
     58 H26         35.4510    14.8060    24.5820 h1         1 44T       0.081200
     59 H27         32.5080    12.4490    23.9390 h1         1 44T       0.069200
     60 H28         33.9940    13.1230    23.2430 h1         1 44T       0.069200
     61 H29         33.2810    15.4260    24.0050 hc         1 44T       0.041200
     62 H30         32.1740    14.6930    22.8530 hc         1 44T       0.041200
     63 H31         30.5920    20.1890    28.6860 hc         1 44T       0.034700
     64 H32         29.5550    20.2620    27.2440 hc         1 44T       0.034700
     65 H33         28.8540    20.5240    28.8570 hc         1 44T       0.034700
@<TRIPOS>BOND
     1     1     2 1   
     2     1     3 1   
     3     1    34 1   
     4     2     9 1   
     5     2    35 1   
     6     2    36 1   
     7     3     5 1   
     8     3    37 1   
     9     3    38 1   
    10     4    18 1   
    11     4    19 1   
    12     4    25 1   
    13     5    31 1   
    14     5    39 1   
    15     5    40 1   
    16     6    17 1   
    17     6    41 1   
    18     7    13 1   
    19     7    32 1   
    20     7    42 1   
    21     7    43 1   
    22     8     9 ar  
    23     8    33 ar  
    24     8    44 1   
    25     9    13 ar  
    26    10    19 ar  
    27    10    20 ar  
    28    11    12 ar  
    29    11    33 ar  
    30    11    45 1   
    31    12    13 ar  
    32    12    46 1   
    33    14    20 ar  
    34    14    21 ar  
    35    15    16 1   
    36    15    47 1   
    37    16    17 1   
    38    16    27 1   
    39    16    48 1   
    40    17    18 1   
    41    17    49 1   
    42    18    26 1   
    43    18    50 1   
    44    19    23 ar  
    45    20    51 1   
    46    21    22 1   
    47    21    23 ar  
    48    22    52 1   
    49    22    53 1   
    50    23    24 1   
    51    24    25 2   
    52    24    54 1   
    53    25    55 1   
    54    26    27 1   
    55    27    28 1   
    56    27    56 1   
    57    28    29 1   
    58    28    57 1   
    59    28    58 1   
    60    29    30 1   
    61    30    31 1   
    62    30    59 1   
    63    30    60 1   
    64    31    61 1   
    65    31    62 1   
    66    32    63 1   
    67    32    64 1   
    68    32    65 1   
@<TRIPOS>SUBSTRUCTURE
     1 44T         1 TEMP              0 ****  ****    0 ROOT
