@<TRIPOS>MOLECULE
44T
   65    68     1     0     0
SMALL
bcc


@<TRIPOS>ATOM
      1 N1          29.5110    16.1210    25.7400 n7         1 44T      -0.807200
      2 C7          28.8500    17.3500    25.3360 c3         1 44T       0.211100
      3 C8          30.4780    15.6560    24.7630 c3         1 44T       0.159800
      4 N2          37.0240    10.0060    26.6730 na         1 44T      -0.166100
      5 C9          31.1670    14.3850    25.2330 c3         1 44T      -0.082400
      6 O1          37.0960    10.6150    23.5670 oh         1 44T      -0.554800
      7 C1          29.7540    18.6020    27.9310 c3         1 44T      -0.045100
      8 C5          26.5200    17.6750    26.1800 ca         1 44T       0.401200
      9 C6          27.8860    17.8150    26.3910 ca         1 44T      -0.204600
     10 N3          39.3060     9.2840    26.9130 nb         1 44T      -0.754000
     11 C4          25.9840    18.5450    28.1990 ca         1 44T       0.403200
     12 C3          27.3200    18.7280    28.5180 ca         1 44T      -0.253300
     13 C2          28.3070    18.3590    27.6100 ca         1 44T      -0.008300
     14 N4          39.5510     7.2350    28.1060 nb         1 44T      -0.828000
     15 O2          37.7690    13.1650    23.8520 oh         1 44T      -0.560800
     16 C16         36.5170    12.8230    24.3930 c5         1 44T       0.119100
     17 C15         36.5040    11.3190    24.6140 c5         1 44T       0.112100
     18 C14         37.2570    11.2200    25.9460 c5         1 44T       0.222800
     19 C20         37.9920     9.1490    27.1040 ca         1 44T       0.489800
     20 C21         40.0010     8.2960    27.4400 ca         1 44T       0.704900
     21 C22         38.2340     7.1090    28.2900 ca         1 44T       0.762200
     22 N5          37.7850     6.0330    28.9480 nv         1 44T      -0.967500
     23 C19         37.3690     8.0980    27.7790 ca         1 44T      -0.391400
     24 C18         35.9640     8.3490    27.7530 cc         1 44T      -0.161200
     25 C17         35.7960     9.5150    27.0740 cd         1 44T      -0.118100
     26 O           36.8030    12.3170    26.6970 os         1 44T      -0.395600
     27 C13         36.3510    13.3530    25.8290 c5         1 44T       0.112100
     28 C12         34.9580    13.8070    26.2350 c3         1 44T      -0.001300
     29 S           33.6590    12.5420    26.2890 ss         1 44T      -0.334200
     30 C11         32.9010    12.6060    24.6350 c3         1 44T       0.008700
     31 C10         32.2440    13.9260    24.2630 c3         1 44T      -0.071400
     32 C           30.2170    19.9780    27.4520 c3         1 44T      -0.085100
     33 N           25.5780    18.0260    27.0480 nb         1 44T      -0.667000
     34 H1          28.8080    15.4040    25.8810 hn         1 44T       0.357800
     35 H3          29.6200    18.1090    25.1720 h1         1 44T       0.036700
     36 H4          28.3140    17.2520    24.3800 h1         1 44T       0.036700
     37 H5          31.2270    16.4420    24.6290 h1         1 44T       0.026200
     38 H6          30.0290    15.4880    23.7710 h1         1 44T       0.026200
     39 H7          30.4240    13.5890    25.3580 hc         1 44T       0.057700
     40 H8          31.6010    14.5630    26.2200 hc         1 44T       0.057700
     41 H9          36.8680     9.6850    23.6620 ho         1 44T       0.415000
     42 H10         29.8950    18.5320    29.0110 hc         1 44T       0.060700
     43 H11         30.3700    17.8230    27.4810 hc         1 44T       0.060700
     44 H12         26.1730    17.2500    25.2410 h4         1 44T       0.012100
     45 H13         25.2120    18.8290    28.9060 h4         1 44T       0.018100
     46 H14         27.5910    19.1570    29.4750 ha         1 44T       0.140000
     47 H15         37.8000    14.1200    23.7400 ho         1 44T       0.402000
     48 H16         35.7000    13.1610    23.7430 h1         1 44T       0.052700
     49 H17         35.4620    11.0110    24.7760 h1         1 44T       0.056700
     50 H18         38.3360    11.2690    25.7670 h2         1 44T       0.120700
     51 H19         41.0790     8.3500    27.3200 h5         1 44T       0.044100
     52 H20         38.4390     5.3890    29.3570 hn         1 44T       0.441800
     53 H21         36.8150     5.9310    29.1880 hn         1 44T       0.441800
     54 H22         35.1760     7.7490    28.1800 ha         1 44T       0.150000
     55 H23         34.8910    10.0570    26.8500 h4         1 44T       0.182000
     56 H24         37.0010    14.2290    25.9520 h1         1 44T       0.064700
     57 H25         35.0070    14.2100    27.2480 h1         1 44T       0.081200
     58 H26         34.6430    14.6330    25.5950 h1         1 44T       0.081200
     59 H27         32.1540    11.8100    24.6670 h1         1 44T       0.069200
     60 H28         33.6330    12.3160    23.8800 h1         1 44T       0.069200
     61 H29         33.0050    14.7060    24.1550 hc         1 44T       0.041200
     62 H30         31.8130    13.7970    23.2660 hc         1 44T       0.041200
     63 H31         31.2690    20.1330    27.6930 hc         1 44T       0.034700
     64 H32         30.1040    20.0850    26.3730 hc         1 44T       0.034700
     65 H33         29.6430    20.7740    27.9280 hc         1 44T       0.034700
@<TRIPOS>BOND
     1     1     2 1   
     2     1     3 1   
     3     1    34 1   
     4     2     9 1   
     5     2    35 1   
     6     2    36 1   
     7     3     5 1   
     8     3    37 1   
     9     3    38 1   
    10     4    18 1   
    11     4    19 1   
    12     4    25 1   
    13     5    31 1   
    14     5    39 1   
    15     5    40 1   
    16     6    17 1   
    17     6    41 1   
    18     7    13 1   
    19     7    32 1   
    20     7    42 1   
    21     7    43 1   
    22     8     9 ar  
    23     8    33 ar  
    24     8    44 1   
    25     9    13 ar  
    26    10    19 ar  
    27    10    20 ar  
    28    11    12 ar  
    29    11    33 ar  
    30    11    45 1   
    31    12    13 ar  
    32    12    46 1   
    33    14    20 ar  
    34    14    21 ar  
    35    15    16 1   
    36    15    47 1   
    37    16    17 1   
    38    16    27 1   
    39    16    48 1   
    40    17    18 1   
    41    17    49 1   
    42    18    26 1   
    43    18    50 1   
    44    19    23 ar  
    45    20    51 1   
    46    21    22 1   
    47    21    23 ar  
    48    22    52 1   
    49    22    53 1   
    50    23    24 1   
    51    24    25 2   
    52    24    54 1   
    53    25    55 1   
    54    26    27 1   
    55    27    28 1   
    56    27    56 1   
    57    28    29 1   
    58    28    57 1   
    59    28    58 1   
    60    29    30 1   
    61    30    31 1   
    62    30    59 1   
    63    30    60 1   
    64    31    61 1   
    65    31    62 1   
    66    32    63 1   
    67    32    64 1   
    68    32    65 1   
@<TRIPOS>SUBSTRUCTURE
     1 44T         1 TEMP              0 ****  ****    0 ROOT
