@<TRIPOS>MOLECULE
44U
   57    59     1     0     0
SMALL
bcc


@<TRIPOS>ATOM
      1 C1           7.7630     1.3580    -0.9270 c3         1 44U      -0.087100
      2 C2           6.5500     1.0780    -0.0530 c3         1 44U      -0.094400
      3 C3           5.5040     0.2620    -0.7950 c3         1 44U       0.103000
      4 C7           2.3100    -1.0470     0.7750 c5         1 44U       0.031700
      5 C9           2.5640    -2.3570     1.5390 c5         1 44U      -0.085400
      6 C10          1.1650    -2.9120     1.7840 c5         1 44U      -0.094400
      7 C11          0.4250    -2.5370     0.5110 c5         1 44U       0.106000
      8 C15         -0.9580    -0.4630    -1.0860 c3         1 44U       0.119500
      9 C19         -3.7740    -1.5260     1.0220 ca         1 44U      -0.122000
     10 C20         -5.0140    -2.1470     0.9670 ca         1 44U      -0.124250
     11 C21         -5.8090    -2.0120    -0.1620 ca         1 44U      -0.124000
     12 C22         -5.3500    -1.2520    -1.2280 ca         1 44U      -0.124250
     13 C24         -1.9640     1.3620     0.3960 ca         1 44U      -0.073300
     14 C27         -1.9210     4.1040     0.9890 ca         1 44U      -0.124000
     15 N4           4.3620    -0.0060     0.0530 ns         1 44U      -0.567900
     16 C5           3.3720    -0.8340    -0.2960 c          1 44U       0.669100
     17 O6           3.3480    -1.4480    -1.3520 o          1 44U      -0.592100
     18 N12          0.9940    -1.2320     0.1910 n          1 44U      -0.475800
     19 O14          1.0830     0.7660    -0.8110 o          1 44U      -0.586100
     20 C17         -1.9310    -0.1210     0.1000 c3         1 44U      -0.013100
     21 C18         -3.2970    -0.7570    -0.0410 ca         1 44U      -0.073300
     22 C23         -4.1090    -0.6310    -1.1680 ca         1 44U      -0.122000
     23 C25         -2.7640     2.2590    -0.3100 ca         1 44U      -0.122000
     24 C26         -2.7420     3.6170    -0.0180 ca         1 44U      -0.124250
     25 C28         -1.1220     3.2210     1.7040 ca         1 44U      -0.124250
     26 C29         -1.1440     1.8670     1.4050 ca         1 44U      -0.122000
     27 N30         -1.1060     0.2730    -2.3140 n8         1 44U      -0.885800
     28 H1           8.5080     1.9440    -0.3900 hc         1 44U       0.036367
     29 H1A          8.2400     0.4310    -1.2490 hc         1 44U       0.036367
     30 H1B          7.4860     1.9160    -1.8220 hc         1 44U       0.036367
     31 H2           6.8550     0.5410     0.8490 hc         1 44U       0.040700
     32 H2A          6.1080     2.0230     0.2770 hc         1 44U       0.040700
     33 H3           5.1920     0.7950    -1.6990 h1         1 44U       0.052700
     34 H3A          5.9410    -0.6850    -1.1230 h1         1 44U       0.052700
     35 H7           2.2910    -0.1980     1.4660 h1         1 44U       0.060700
     36 H9           3.1330    -3.0550     0.9210 hc         1 44U       0.061200
     37 H9A          3.1280    -2.1840     2.4530 hc         1 44U       0.061200
     38 H10          1.1590    -3.9850     1.9670 hc         1 44U       0.053700
     39 H10A         0.7000    -2.4190     2.6410 hc         1 44U       0.053700
     40 H11          0.6210    -3.2550    -0.2910 h1         1 44U       0.053700
     41 H11A        -0.6520    -2.4920     0.6600 h1         1 44U       0.053700
     42 H15         -1.1130    -1.5180    -1.3230 h1         1 44U       0.072700
     43 H20         -5.3550    -2.7380     1.8070 ha         1 44U       0.131000
     44 H21         -6.7760    -2.4960    -0.2120 ha         1 44U       0.131500
     45 H22         -5.9590    -1.1390    -2.1150 ha         1 44U       0.131000
     46 H27         -1.9100     5.1610     1.2220 ha         1 44U       0.131500
     47 HN4          4.2710     0.5280     0.9030 hn         1 44U       0.310500
     48 H17         -1.4920    -0.5860     0.9880 hc         1 44U       0.059700
     49 H23         -3.7940    -0.0480    -2.0210 ha         1 44U       0.125750
     50 H25         -3.4300     1.9060    -1.0860 ha         1 44U       0.125750
     51 H26         -3.3760     4.2930    -0.5770 ha         1 44U       0.131000
     52 H28         -0.4830     3.5860     2.4980 ha         1 44U       0.131000
     53 H29         -0.5190     1.1890     1.9750 ha         1 44U       0.125750
     54 HN30        -1.9650     0.0280    -2.7840 hn         1 44U       0.360300
     55 HN3A        -1.1100     1.2710    -2.1530 hn         1 44U       0.360300
     56 C13          0.4660    -0.2640    -0.5770 c          1 44U       0.684100
     57 H19         -3.1640    -1.6390     1.9110 ha         1 44U       0.125750
@<TRIPOS>BOND
     1     1     2 1   
     2     1    28 1   
     3     1    29 1   
     4     1    30 1   
     5     2     3 1   
     6     2    31 1   
     7     2    32 1   
     8     3    15 1   
     9     3    33 1   
    10     3    34 1   
    11     4     5 1   
    12     4    16 1   
    13     4    18 1   
    14     4    35 1   
    15     5     6 1   
    16     5    36 1   
    17     5    37 1   
    18     6     7 1   
    19     6    38 1   
    20     6    39 1   
    21     7    18 1   
    22     7    40 1   
    23     7    41 1   
    24     8    20 1   
    25     8    27 1   
    26     8    42 1   
    27     8    56 1   
    28     9    10 ar  
    29     9    21 ar  
    30     9    57 1   
    31    10    11 ar  
    32    10    43 1   
    33    11    12 ar  
    34    11    44 1   
    35    12    22 ar  
    36    12    45 1   
    37    13    20 1   
    38    13    23 ar  
    39    13    26 ar  
    40    14    24 ar  
    41    14    25 ar  
    42    14    46 1   
    43    15    16 1   
    44    15    47 1   
    45    16    17 2   
    46    18    56 1   
    47    19    56 2   
    48    20    21 1   
    49    20    48 1   
    50    21    22 ar  
    51    22    49 1   
    52    23    24 ar  
    53    23    50 1   
    54    24    51 1   
    55    25    26 ar  
    56    25    52 1   
    57    26    53 1   
    58    27    54 1   
    59    27    55 1   
@<TRIPOS>SUBSTRUCTURE
     1 44U         1 TEMP              0 ****  ****    0 ROOT
