@<TRIPOS>MOLECULE
44U
   57    59     1     0     0
SMALL
No Charge or Current Charge


@<TRIPOS>ATOM
      1 C1           8.4030     0.7870    -0.4840 c3         1 44U      -0.087100
      2 C2           7.1130     0.3790     0.2520 c3         1 44U      -0.094400
      3 C3           5.9480     0.0680    -0.7070 c3         1 44U       0.103000
      4 C7           2.5080    -1.0600     0.5160 c5         1 44U       0.031700
      5 C9           2.6850    -2.5560     0.9230 c5         1 44U      -0.085400
      6 C10          1.2720    -2.9320     1.4270 c5         1 44U      -0.094400
      7 C11          0.3740    -2.3100     0.3310 c5         1 44U       0.106000
      8 C15         -1.0000    -0.0020    -1.0540 c3         1 44U       0.119500
      9 C19         -3.8130    -1.0510     1.3750 ca         1 44U      -0.104000
     10 C20         -4.9280    -1.9040     1.4310 ca         1 44U      -0.106250
     11 C21         -5.4620    -2.4420     0.2500 ca         1 44U      -0.106000
     12 C22         -4.8800    -2.1230    -0.9870 ca         1 44U      -0.106250
     13 C24         -2.4110     1.6850     0.3090 ca         1 44U      -0.073300
     14 C27         -3.1310     4.3970     0.6500 ca         1 44U      -0.106000
     15 N4           4.7400    -0.3170     0.0210 ns         1 44U      -0.500900
     16 C5           3.5710    -0.7270    -0.5840 c          1 44U       0.602100
     17 O6           3.4410    -0.8060    -1.8010 o          1 44U      -0.592100
     18 N12          1.0840    -1.0380     0.0680 n          1 44U      -0.408800
     19 O14          1.1470     1.1250    -0.6910 o          1 44U      -0.586100
     20 C17         -1.9950     0.2150     0.1390 c3         1 44U      -0.013100
     21 C18         -3.2140    -0.7260     0.1390 ca         1 44U      -0.073300
     22 C23         -3.7640    -1.2700    -1.0450 ca         1 44U      -0.104000
     23 C25         -3.6130     2.1830    -0.2410 ca         1 44U      -0.104000
     24 C26         -3.9700     3.5320    -0.0710 ca         1 44U      -0.106250
     25 C28         -1.9350     3.9120     1.2020 ca         1 44U      -0.106250
     26 C29         -1.5770     2.5630     1.0330 ca         1 44U      -0.104000
     27 N30         -1.3470     0.8650    -2.2410 n8         1 44U      -0.996200
     28 H1           9.2040     0.9990     0.2350 hc         1 44U       0.036367
     29 H1A          8.7430    -0.0170    -1.1480 hc         1 44U       0.036367
     30 H1B          8.2380     1.6880    -1.0880 hc         1 44U       0.036367
     31 H2           7.3180    -0.5030     0.8710 hc         1 44U       0.040700
     32 H2A          6.8170     1.1890     0.9310 hc         1 44U       0.040700
     33 H3           5.7260     0.9540    -1.3180 h1         1 44U       0.052700
     34 H3A          6.2340    -0.7520    -1.3790 h1         1 44U       0.052700
     35 H7           2.6430    -0.3880     1.3740 h1         1 44U       0.060700
     36 H9           2.9650    -3.1780     0.0630 hc         1 44U       0.061200
     37 H9A          3.4580    -2.6940     1.6870 hc         1 44U       0.061200
     38 H10          1.1270    -4.0140     1.5230 hc         1 44U       0.053700
     39 H10A         1.0670    -2.4830     2.4060 hc         1 44U       0.053700
     40 H11          0.3480    -2.9340    -0.5730 h1         1 44U       0.053700
     41 H11A        -0.6530    -2.1720     0.6900 h1         1 44U       0.053700
     42 H15         -1.1140    -1.0410    -1.3900 h1         1 44U       0.072700
     43 H20         -5.3790    -2.1460     2.3910 ha         1 44U       0.113000
     44 H21         -6.3260    -3.1020     0.2920 ha         1 44U       0.113500
     45 H22         -5.2960    -2.5350    -1.9040 ha         1 44U       0.113000
     46 H27         -3.4080     5.4410     0.7810 ha         1 44U       0.113500
     47 HN4          4.7530    -0.2860     1.0330 hn         1 44U       0.310500
     48 H17         -1.4340    -0.0490     1.0440 hc         1 44U       0.059700
     49 H23         -3.3420    -1.0360    -2.0180 ha         1 44U       0.107750
     50 H25         -4.2760     1.5310    -0.8040 ha         1 44U       0.107750
     51 H26         -4.8970     3.9060    -0.4990 ha         1 44U       0.113000
     52 H28         -1.2840     4.5800     1.7610 ha         1 44U       0.113000
     53 H29         -0.6470     2.2020     1.4660 ha         1 44U       0.107750
     54 HN30        -2.3670     0.8960    -2.3380 hn         1 44U       0.415500
     55 HN3A        -1.1100     1.8360    -2.0010 hn         1 44U       0.415500
     56 C13          0.4960     0.0930    -0.5540 c          1 44U       0.617100
     57 H19         -3.4130    -0.6380     2.2980 ha         1 44U       0.107750
@<TRIPOS>BOND
     1     1     2 1   
     2     1    28 1   
     3     1    29 1   
     4     1    30 1   
     5     2     3 1   
     6     2    31 1   
     7     2    32 1   
     8     3    15 1   
     9     3    33 1   
    10     3    34 1   
    11     4     5 1   
    12     4    16 1   
    13     4    18 1   
    14     4    35 1   
    15     5     6 1   
    16     5    36 1   
    17     5    37 1   
    18     6     7 1   
    19     6    38 1   
    20     6    39 1   
    21     7    18 1   
    22     7    40 1   
    23     7    41 1   
    24     8    20 1   
    25     8    27 1   
    26     8    42 1   
    27     8    56 1   
    28     9    10 ar  
    29     9    21 ar  
    30     9    57 1   
    31    10    11 ar  
    32    10    43 1   
    33    11    12 ar  
    34    11    44 1   
    35    12    22 ar  
    36    12    45 1   
    37    13    20 1   
    38    13    23 ar  
    39    13    26 ar  
    40    14    24 ar  
    41    14    25 ar  
    42    14    46 1   
    43    15    16 1   
    44    15    47 1   
    45    16    17 2   
    46    18    56 1   
    47    19    56 2   
    48    20    21 1   
    49    20    48 1   
    50    21    22 ar  
    51    22    49 1   
    52    23    24 ar  
    53    23    50 1   
    54    24    51 1   
    55    25    26 ar  
    56    25    52 1   
    57    26    53 1   
    58    27    54 1   
    59    27    55 1   
@<TRIPOS>SUBSTRUCTURE
     1 44U         1 TEMP              0 ****  ****    0 ROOT
