@<TRIPOS>MOLECULE
44V
   24    25     1     0     0
SMALL
No Charge or Current Charge


@<TRIPOS>ATOM
      1 C13         -3.1750     0.2880    -1.3420 c3         1 44V      -0.080100
      2 C01         -2.3100    -1.2680     0.5410 c6         1 44V       0.195800
      3 C02         -2.6240     0.2190     0.1060 c6         1 44V       0.169500
      4 N03         -1.4150     1.0790     0.2150 nu         1 44V      -0.704200
      5 C04         -0.1290     0.5150     0.0940 cc         1 44V      -0.242200
      6 C05          0.0540    -0.8580     0.0240 cd         1 44V       0.432600
      7 N06         -0.9710    -1.7350     0.0830 nu         1 44V      -0.818200
      8 N07          1.2830    -1.4600    -0.0860 nd         1 44V      -0.761300
      9 C08          2.2680    -0.6080    -0.1320 cc         1 44V       0.735800
     10 N09          2.2050     0.7280    -0.0810 ns         1 44V      -0.445400
     11 C10          1.0490     1.4060     0.0320 c          1 44V       0.602200
     12 O11          1.0150     2.6280     0.0730 o          1 44V      -0.554000
     13 N12          3.4760    -1.1290    -0.2340 nv         1 44V      -1.039200
     14 H1          -4.0880    -0.3110    -1.4430 hc         1 44V       0.042033
     15 H2          -3.4250     1.3180    -1.6220 hc         1 44V       0.042033
     16 H3          -2.4440    -0.0900    -2.0660 hc         1 44V       0.042033
     17 H5          -3.1020    -1.9370     0.1720 h1         1 44V       0.043200
     18 H6          -3.4130     0.6040     0.7700 h1         1 44V       0.058700
     19 H7          -1.5020     2.1000     0.1910 hn         1 44V       0.423000
     20 H8          -0.6770    -2.6950     0.2470 hn         1 44V       0.505000
     21 H9           3.0480     1.2710    -0.1520 hn         1 44V       0.323500
     22 H10          3.4820    -2.1300    -0.0850 hn         1 44V       0.492500
     23 H11          4.2320    -0.6250     0.2120 hn         1 44V       0.492500
     24 H4          -2.3440    -1.3160     1.6390 h1         1 44V       0.043200
@<TRIPOS>BOND
     1     1     3 1   
     2     1    14 1   
     3     1    15 1   
     4     1    16 1   
     5     2     3 1   
     6     2     7 1   
     7     2    17 1   
     8     2    24 1   
     9     3     4 1   
    10     3    18 1   
    11     4     5 1   
    12     4    19 1   
    13     5     6 2   
    14     5    11 1   
    15     6     7 1   
    16     6     8 1   
    17     7    20 1   
    18     8     9 2   
    19     9    10 1   
    20     9    13 1   
    21    10    11 1   
    22    10    21 1   
    23    11    12 2   
    24    13    22 1   
    25    13    23 1   
@<TRIPOS>SUBSTRUCTURE
     1 44V         1 TEMP              0 ****  ****    0 ROOT
