@<TRIPOS>MOLECULE
44V
   24    25     1     0     0
SMALL
bcc


@<TRIPOS>ATOM
      1 C13         -2.7270     0.1300    -1.4950 c3         1 44V      -0.080100
      2 C01         -2.4060    -1.0920     0.7020 c6         1 44V       0.195800
      3 C02         -2.6010     0.2650     0.0170 c6         1 44V       0.169500
      4 N03         -1.5170     1.1760     0.3590 nu         1 44V      -0.649000
      5 C04         -0.2330     0.5910     0.2150 cc         1 44V      -0.242200
      6 C05         -0.0510    -0.7860     0.1950 cd         1 44V       0.432600
      7 N06         -1.1030    -1.6080     0.3620 nu         1 44V      -0.763000
      8 N07          1.1410    -1.3930    -0.0270 nd         1 44V      -0.761300
      9 C08          2.1770    -0.6210    -0.1970 cc         1 44V       0.735800
     10 N09          2.0920     0.7280    -0.1630 ns         1 44V      -0.512400
     11 C10          0.8910     1.4270     0.0120 c          1 44V       0.744700
     12 O11          0.9110     2.6570    -0.0050 o          1 44V      -0.629500
     13 N12          3.3830    -1.1630    -0.4580 nv         1 44V      -0.928800
     14 H1          -3.5220    -0.5700    -1.7560 hc         1 44V       0.042033
     15 H2          -2.9650     1.0950    -1.9420 hc         1 44V       0.042033
     16 H3          -1.8050    -0.2300    -1.9530 hc         1 44V       0.042033
     17 H5          -3.1640    -1.8080     0.3820 h1         1 44V       0.043200
     18 H6          -3.5230     0.7010     0.4050 h1         1 44V       0.058700
     19 H7          -1.6520     1.5480     1.2910 hn         1 44V       0.367800
     20 H8          -0.9350    -2.5990     0.3580 hn         1 44V       0.449800
     21 H9           2.9210     1.2870    -0.3170 hn         1 44V       0.323500
     22 H10          3.4780    -2.1520    -0.2970 hn         1 44V       0.437300
     23 H11          4.2190    -0.6200    -0.3200 hn         1 44V       0.437300
     24 H4          -2.5150    -0.9670     1.7860 h1         1 44V       0.043200
@<TRIPOS>BOND
     1     1     3 1   
     2     1    14 1   
     3     1    15 1   
     4     1    16 1   
     5     2     3 1   
     6     2     7 1   
     7     2    17 1   
     8     2    24 1   
     9     3     4 1   
    10     3    18 1   
    11     4     5 1   
    12     4    19 1   
    13     5     6 2   
    14     5    11 1   
    15     6     7 1   
    16     6     8 1   
    17     7    20 1   
    18     8     9 2   
    19     9    10 1   
    20     9    13 1   
    21    10    11 1   
    22    10    21 1   
    23    11    12 2   
    24    13    22 1   
    25    13    23 1   
@<TRIPOS>SUBSTRUCTURE
     1 44V         1 TEMP              0 ****  ****    0 ROOT
