@<TRIPOS>MOLECULE
44W
   22    23     1     0     0
SMALL
No Charge or Current Charge


@<TRIPOS>ATOM
      1 N01          3.5610    -0.8700     0.1340 nv         1 44W      -1.054200
      2 C02          2.3190    -0.4410     0.0890 cc         1 44W       0.767800
      3 N03          1.4020    -1.3620     0.1200 nd         1 44W      -0.775300
      4 C04          0.1280    -0.8560     0.0610 cd         1 44W       0.457600
      5 N05         -0.8200    -1.8150     0.0900 nu         1 44W      -0.795200
      6 C06         -2.2640    -1.4580     0.1800 c6         1 44W       0.149500
      7 C07         -2.4870     0.0670     0.0380 c2         1 44W       0.336300
      8 C08         -3.9250     0.5360    -0.0000 c3         1 44W      -0.118400
      9 N19         -1.5100     0.9360    -0.0460 ne         1 44W      -0.465300
     10 C20         -0.1730     0.4980    -0.0080 cc         1 44W      -0.212600
     11 C21          0.9410     1.4660    -0.0340 c          1 44W       0.618200
     12 O22          0.8230     2.6820    -0.0900 o          1 44W      -0.531000
     13 N23          2.1500     0.8800     0.0150 ns         1 44W      -0.452400
     14 H1           4.2370    -0.3340    -0.3960 hn         1 44W       0.508000
     15 H2           3.6310    -1.8730     0.0150 hn         1 44W       0.508000
     16 H3          -0.4820    -2.7500     0.3140 hn         1 44W       0.501000
     17 H4          -2.8280    -1.9770    -0.6090 h1         1 44W       0.045200
     18 H5          -2.6740    -1.7900     1.1450 h1         1 44W       0.045200
     19 H6          -4.4530     0.2490     0.9160 hc         1 44W       0.048033
     20 H7          -3.9940     1.6270    -0.0960 hc         1 44W       0.048033
     21 H8          -4.4570     0.0930    -0.8490 hc         1 44W       0.048033
     22 H9           2.9520     1.4870     0.0280 hn         1 44W       0.324500
@<TRIPOS>BOND
     1     1     2 1   
     2     1    14 1   
     3     1    15 1   
     4     2     3 2   
     5     2    13 1   
     6     3     4 1   
     7     4     5 1   
     8     4    10 2   
     9     5     6 1   
    10     5    16 1   
    11     6     7 1   
    12     6    17 1   
    13     6    18 1   
    14     7     8 1   
    15     7     9 2   
    16     8    19 1   
    17     8    20 1   
    18     8    21 1   
    19     9    10 1   
    20    10    11 1   
    21    11    12 2   
    22    11    13 1   
    23    13    22 1   
@<TRIPOS>SUBSTRUCTURE
     1 44W         1 TEMP              0 ****  ****    0 ROOT
