@<TRIPOS>MOLECULE
44W
   22    23     1     0     0
SMALL
abcg2


@<TRIPOS>ATOM
      1 N01          3.6020    -0.9110    -0.0010 nv         1 44W      -1.054200
      2 C02          2.3360    -0.4860     0.0010 cc         1 44W       0.767800
      3 N03          1.3610    -1.3640    -0.0160 nd         1 44W      -0.775300
      4 C04          0.1090    -0.8730     0.0240 cd         1 44W       0.457600
      5 N05         -0.8960    -1.7600    -0.0070 nu         1 44W      -0.795200
      6 C06         -2.2440    -1.3790     0.3480 c6         1 44W       0.149500
      7 C07         -2.4700     0.0810     0.0330 c2         1 44W       0.336300
      8 C08         -3.8940     0.5050    -0.1030 c3         1 44W      -0.118400
      9 N19         -1.5240     0.9240    -0.0660 ne         1 44W      -0.465300
     10 C20         -0.2100     0.4850     0.0430 cc         1 44W      -0.212600
     11 C21          0.8440     1.4350     0.0450 c          1 44W       0.618200
     12 O22          0.7540     2.6580     0.0460 o          1 44W      -0.531000
     13 N23          2.1160     0.8470     0.0470 ns         1 44W      -0.452400
     14 H1           4.3750    -0.2810    -0.1300 hn         1 44W       0.508000
     15 H2           3.7780    -1.8930    -0.1240 hn         1 44W       0.508000
     16 H3          -0.6540    -2.7370     0.0090 hn         1 44W       0.501000
     17 H4          -2.9510    -1.9980    -0.2070 h1         1 44W       0.045200
     18 H5          -2.4510    -1.5490     1.4150 h1         1 44W       0.045200
     19 H6          -4.4710     0.2070     0.7760 hc         1 44W       0.048033
     20 H7          -3.9730     1.5830    -0.2250 hc         1 44W       0.048033
     21 H8          -4.3630     0.0160    -0.9610 hc         1 44W       0.048033
     22 H9           2.9030     1.4820     0.0700 hn         1 44W       0.324500
@<TRIPOS>BOND
     1     1     2 1   
     2     1    14 1   
     3     1    15 1   
     4     2     3 2   
     5     2    13 1   
     6     3     4 1   
     7     4     5 1   
     8     4    10 2   
     9     5     6 1   
    10     5    16 1   
    11     6     7 1   
    12     6    17 1   
    13     6    18 1   
    14     7     8 1   
    15     7     9 2   
    16     8    19 1   
    17     8    20 1   
    18     8    21 1   
    19     9    10 1   
    20    10    11 1   
    21    11    12 2   
    22    11    13 1   
    23    13    22 1   
@<TRIPOS>SUBSTRUCTURE
     1 44W         1 TEMP              0 ****  ****    0 ROOT
