@<TRIPOS>MOLECULE
44X
   55    59     1     0     0
SMALL
abcg2


@<TRIPOS>ATOM
      1 C21         -2.8600     5.3370    -1.6190 c3         1 44X      -0.134400
      2 C19         -2.6770     3.9780    -1.0480 cc         1 44X       0.281300
      3 C20         -3.5410     2.8580    -1.1760 cc         1 44X      -0.228000
      4 N5          -1.6350     3.6780    -0.3280 nd         1 44X      -0.355300
      5 O1          -1.7770     2.3700     0.0340 os         1 44X      -0.079700
      6 C18         -2.9130     1.8850    -0.4720 cd         1 44X       0.241500
      7 C15         -3.2460     0.4990    -0.1950 cd         1 44X      -0.161500
      8 C16         -4.4490    -0.0480    -0.7500 cd         1 44X      -0.135000
      9 C17         -4.7750    -1.3310    -0.4990 cc         1 44X       0.217000
     10 F1          -5.8750    -1.8930    -0.9840 f          1 44X      -0.136000
     11 C14         -2.4360    -0.2720     0.5760 cc         1 44X      -0.051000
     12 N2          -2.7940    -1.5710     0.8030 na         1 44X       0.019200
     13 C13         -3.9370    -2.1440     0.3020 cc         1 44X      -0.142000
     14 N3          -4.0220    -3.3920     0.6840 nd         1 44X      -0.057000
     15 N4          -2.9340    -3.6430     1.4360 nd         1 44X      -0.352700
     16 C11         -2.1930    -2.5730     1.5180 cc         1 44X       0.340800
     17 C10         -0.8880    -2.4230     2.2250 c3         1 44X      -0.018700
     18 C12         -0.5750    -3.6550     3.0720 c3         1 44X      -0.075100
     19 C7           0.2180    -2.1370     1.2300 ca         1 44X      -0.088300
     20 C6           1.0350    -1.0500     1.3830 ca         1 44X      -0.099000
     21 C4           2.0790    -0.7890     0.4630 ca         1 44X      -0.042000
     22 C3           2.9370     0.3170     0.5810 ca         1 44X      -0.116000
     23 C8           0.4210    -3.0150     0.1360 ca         1 44X      -0.108000
     24 C9           1.4200    -2.7900    -0.7670 ca         1 44X      -0.064000
     25 C5           2.2740    -1.6710    -0.6270 ca         1 44X       0.238000
     26 N1           3.2490    -1.4710    -1.5360 nb         1 44X      -0.634000
     27 C1           4.0360    -0.4360    -1.4090 ca         1 44X       0.292900
     28 C2           3.9260     0.5050    -0.3540 ca         1 44X       0.094100
     29 O2           4.7290     1.5720    -0.2180 os         1 44X      -0.328100
     30 C22          5.7980     1.7560    -1.1350 c3         1 44X       0.162600
     31 C23          6.5580     2.9940    -0.7410 c3         1 44X       0.157600
     32 O3           7.1650     2.8030     0.5080 os         1 44X      -0.442000
     33 C24          7.9290     3.9120     0.9090 c3         1 44X       0.144900
     34 H1          -3.7790     5.7880    -1.2430 hc         1 44X       0.058367
     35 H2          -2.0260     5.9870    -1.3620 hc         1 44X       0.058367
     36 H3          -2.9400     5.2880    -2.7040 hc         1 44X       0.058367
     37 H4          -4.4740     2.8110    -1.7120 ha         1 44X       0.156000
     38 H5          -5.0950     0.5610    -1.3670 ha         1 44X       0.147000
     39 H6          -1.5180     0.0680     1.0280 h4         1 44X       0.174000
     40 H7          -0.9680    -1.5640     2.9000 hc         1 44X       0.064700
     41 H8           0.3750    -3.5110     3.5830 hc         1 44X       0.050700
     42 H9          -1.3450    -3.8150     3.8260 hc         1 44X       0.050700
     43 H10         -0.5020    -4.5560     2.4650 hc         1 44X       0.050700
     44 H11          0.8920    -0.3690     2.2160 ha         1 44X       0.116000
     45 H12          2.8190     1.0140     1.4020 ha         1 44X       0.137000
     46 H13         -0.2270    -3.8740     0.0140 ha         1 44X       0.129000
     47 H14          1.5730    -3.4600    -1.6030 ha         1 44X       0.134000
     48 H15          4.8010    -0.3240    -2.1700 h4         1 44X       0.021100
     49 H16          6.4630     0.8860    -1.1340 h1         1 44X       0.045200
     50 H17          5.4200     1.8930    -2.1530 h1         1 44X       0.045200
     51 H18          7.3040     3.1830    -1.5250 h1         1 44X       0.034700
     52 H19          5.8830     3.8620    -0.7280 h1         1 44X       0.034700
     53 H20          8.7500     4.1190     0.2130 h1         1 44X       0.030700
     54 H21          7.3220     4.8210     0.9930 h1         1 44X       0.030700
     55 H22          8.3550     3.6910     1.8870 h1         1 44X       0.030700
@<TRIPOS>BOND
     1     1     2 1   
     2     1    34 1   
     3     1    35 1   
     4     1    36 1   
     5     2     3 1   
     6     2     4 2   
     7     3     6 2   
     8     3    37 1   
     9     4     5 1   
    10     5     6 1   
    11     6     7 1   
    12     7     8 1   
    13     7    11 2   
    14     8     9 2   
    15     8    38 1   
    16     9    10 1   
    17     9    13 1   
    18    11    12 1   
    19    11    39 1   
    20    12    13 1   
    21    12    16 1   
    22    13    14 2   
    23    14    15 1   
    24    15    16 2   
    25    16    17 1   
    26    17    18 1   
    27    17    19 1   
    28    17    40 1   
    29    18    41 1   
    30    18    42 1   
    31    18    43 1   
    32    19    20 ar  
    33    19    23 ar  
    34    20    21 ar  
    35    20    44 1   
    36    21    22 ar  
    37    21    25 ar  
    38    22    28 ar  
    39    22    45 1   
    40    23    24 ar  
    41    23    46 1   
    42    24    25 ar  
    43    24    47 1   
    44    25    26 ar  
    45    26    27 ar  
    46    27    28 ar  
    47    27    48 1   
    48    28    29 1   
    49    29    30 1   
    50    30    31 1   
    51    30    49 1   
    52    30    50 1   
    53    31    32 1   
    54    31    51 1   
    55    31    52 1   
    56    32    33 1   
    57    33    53 1   
    58    33    54 1   
    59    33    55 1   
@<TRIPOS>SUBSTRUCTURE
     1 44X         1 TEMP              0 ****  ****    0 ROOT
