@<TRIPOS>MOLECULE
44X
   55    59     1     0     0
SMALL
No Charge or Current Charge


@<TRIPOS>ATOM
      1 C21         -2.9510     5.2110    -1.7760 c3         1 44X      -0.134400
      2 C19         -2.6160     3.9180    -1.0930 cc         1 44X       0.281300
      3 C20         -3.4660     2.8000    -1.1390 cc         1 44X      -0.228000
      4 N5          -1.5070     3.7190    -0.3980 nd         1 44X      -0.355300
      5 O1          -1.6280     2.3550     0.0570 os         1 44X      -0.079700
      6 C18         -2.8150     1.8580    -0.4150 cd         1 44X       0.241500
      7 C15         -3.2810     0.5130    -0.1630 cd         1 44X      -0.161500
      8 C16         -4.5510     0.0400    -0.6940 cd         1 44X      -0.135000
      9 C17         -4.9410    -1.2510    -0.4300 cc         1 44X       0.217000
     10 F1          -6.0980    -1.7470    -0.8960 f          1 44X      -0.136000
     11 C14         -2.4350    -0.2870     0.6140 cc         1 44X      -0.051000
     12 N2          -2.9150    -1.5840     0.8360 na         1 44X       0.019200
     13 C13         -4.0840    -2.0690     0.3540 cc         1 44X      -0.142000
     14 N3          -4.1880    -3.3240     0.7530 nd         1 44X      -0.057000
     15 N4          -3.0450    -3.6310     1.4920 nd         1 44X      -0.352700
     16 C11         -2.2600    -2.5560     1.5420 cc         1 44X       0.340800
     17 C10         -0.9040    -2.4430     2.2160 c3         1 44X      -0.018700
     18 C12         -0.5580    -3.6580     3.1100 c3         1 44X      -0.075100
     19 C7           0.2140    -2.1940     1.2010 ca         1 44X      -0.088300
     20 C6           1.0810    -1.0950     1.3520 ca         1 44X      -0.099000
     21 C4           2.0970    -0.8540     0.4070 ca         1 44X      -0.042000
     22 C3           2.9540     0.2520     0.5640 ca         1 44X      -0.116000
     23 C8           0.3820    -3.0530     0.0990 ca         1 44X      -0.108000
     24 C9           1.3990    -2.8140    -0.8420 ca         1 44X      -0.064000
     25 C5           2.2680    -1.7160    -0.7070 ca         1 44X       0.238000
     26 N1           3.2370    -1.5060    -1.6310 nb         1 44X      -0.634000
     27 C1           4.0600    -0.4390    -1.4750 ca         1 44X       0.292900
     28 C2           3.9560     0.4700    -0.3920 ca         1 44X       0.094100
     29 O2           4.7930     1.5600    -0.2310 os         1 44X      -0.328100
     30 C22          5.8460     1.8550    -1.1710 c3         1 44X       0.162600
     31 C23          6.5890     3.1260    -0.7010 c3         1 44X       0.157600
     32 O3           7.3540     2.8110     0.4800 os         1 44X      -0.442000
     33 C24          8.0910     3.9180     1.0250 c3         1 44X       0.144900
     34 H1          -3.8930     5.6190    -1.3910 hc         1 44X       0.058367
     35 H2          -2.1680     5.9610    -1.6150 hc         1 44X       0.058367
     36 H3          -3.0600     5.0610    -2.8560 hc         1 44X       0.058367
     37 H4          -4.4190     2.7420    -1.6490 ha         1 44X       0.156000
     38 H5          -5.1960     0.6710    -1.2930 ha         1 44X       0.147000
     39 H6          -1.4830     0.0030     1.0400 h4         1 44X       0.174000
     40 H7          -0.9640    -1.5810     2.8920 hc         1 44X       0.064700
     41 H8           0.4040    -3.5040     3.6120 hc         1 44X       0.050700
     42 H9          -1.3240    -3.8020     3.8820 hc         1 44X       0.050700
     43 H10         -0.4890    -4.5780     2.5160 hc         1 44X       0.050700
     44 H11          0.9670    -0.4250     2.2010 ha         1 44X       0.116000
     45 H12          2.8470     0.9300     1.4080 ha         1 44X       0.137000
     46 H13         -0.2750    -3.9100    -0.0350 ha         1 44X       0.129000
     47 H14          1.5150    -3.4850    -1.6880 ha         1 44X       0.134000
     48 H15          4.8190    -0.3190    -2.2470 h4         1 44X       0.021100
     49 H16          6.5570     1.0220    -1.2430 h1         1 44X       0.045200
     50 H17          5.4260     2.0390    -2.1690 h1         1 44X       0.045200
     51 H18          7.2530     3.4670    -1.5060 h1         1 44X       0.034700
     52 H19          5.8600     3.9220    -0.4990 h1         1 44X       0.034700
     53 H20          8.8120     4.3060     0.2930 h1         1 44X       0.030700
     54 H21          7.4150     4.7330     1.3130 h1         1 44X       0.030700
     55 H22          8.6470     3.6040     1.9180 h1         1 44X       0.030700
@<TRIPOS>BOND
     1     1     2 1   
     2     1    34 1   
     3     1    35 1   
     4     1    36 1   
     5     2     3 1   
     6     2     4 2   
     7     3     6 2   
     8     3    37 1   
     9     4     5 1   
    10     5     6 1   
    11     6     7 1   
    12     7     8 1   
    13     7    11 2   
    14     8     9 2   
    15     8    38 1   
    16     9    10 1   
    17     9    13 1   
    18    11    12 1   
    19    11    39 1   
    20    12    13 1   
    21    12    16 1   
    22    13    14 2   
    23    14    15 1   
    24    15    16 2   
    25    16    17 1   
    26    17    18 1   
    27    17    19 1   
    28    17    40 1   
    29    18    41 1   
    30    18    42 1   
    31    18    43 1   
    32    19    20 ar  
    33    19    23 ar  
    34    20    21 ar  
    35    20    44 1   
    36    21    22 ar  
    37    21    25 ar  
    38    22    28 ar  
    39    22    45 1   
    40    23    24 ar  
    41    23    46 1   
    42    24    25 ar  
    43    24    47 1   
    44    25    26 ar  
    45    26    27 ar  
    46    27    28 ar  
    47    27    48 1   
    48    28    29 1   
    49    29    30 1   
    50    30    31 1   
    51    30    49 1   
    52    30    50 1   
    53    31    32 1   
    54    31    51 1   
    55    31    52 1   
    56    32    33 1   
    57    33    53 1   
    58    33    54 1   
    59    33    55 1   
@<TRIPOS>SUBSTRUCTURE
     1 44X         1 TEMP              0 ****  ****    0 ROOT
