@<TRIPOS>MOLECULE
44Z
   74    78     1     0     0
SMALL
No Charge or Current Charge


@<TRIPOS>ATOM
      1 N            0.7210    -1.6710    -0.0570 n2         1 44Z      -0.599900
      2 C1          -0.0300     3.7350    -3.7000 c          1 44Z       0.548000
      3 O1          -0.4290     3.6620    -4.8510 o          1 44Z      -0.567000
      4 N1           0.7090     4.8220    -3.2890 ns         1 44Z      -0.504900
      5 C2           1.0990     5.1010    -1.8970 c6         1 44Z       0.086000
      6 C3           0.2700     4.2720    -0.8920 c6         1 44Z       0.086000
      7 N2           0.2290     2.8370    -1.2760 n          1 44Z      -0.414800
      8 C4          -0.2900     2.6090    -2.6640 c6         1 44Z       0.019000
      9 C5           0.8220     1.8320    -0.4740 c          1 44Z       0.677100
     10 O5           1.5400     2.1480     0.4630 o          1 44Z      -0.584100
     11 N3           0.5740     0.4780    -0.7670 n          1 44Z      -0.382300
     12 C6           1.3210    -0.5270    -0.1330 ce         1 44Z       0.543500
     13 C7          -0.5420    -1.5320    -0.8580 c5         1 44Z       0.155800
     14 C8          -0.7940     0.0190    -1.0370 c5         1 44Z       0.127000
     15 CG1         -1.7340     0.5800     0.0530 ca         1 44Z      -0.105300
     16 CD1         -1.4410     0.5020     1.4360 ca         1 44Z      -0.080000
     17 CE1         -2.3320     1.0240     2.3890 ca         1 44Z      -0.106000
     18 CZ1         -3.5250     1.6330     1.9750 ca         1 44Z       0.127000
     19 Cl          -4.6400     2.2840     3.1690 cl         1 44Z      -0.208000
     20 CE2         -3.8290     1.7200     0.6090 ca         1 44Z      -0.106000
     21 CD2         -2.9390     1.1980    -0.3440 ca         1 44Z      -0.080000
     22 CG2         -1.8080    -2.1900    -0.2820 ca         1 44Z      -0.038300
     23 CD3         -1.8390    -2.7420     1.0180 ca         1 44Z      -0.119000
     24 CE3         -3.0150    -3.3190     1.5230 ca         1 44Z      -0.080000
     25 CZ2         -4.1770    -3.3580     0.7370 ca         1 44Z      -0.192000
     26 CE4         -4.1600    -2.8190    -0.5660 ca         1 44Z       0.138100
     27 O4          -5.2690    -2.8280    -1.3880 os         1 44Z      -0.344100
     28 CD4         -2.9800    -2.2460    -1.0650 ca         1 44Z      -0.142000
     29 CG3          2.8030    -0.4460     0.0040 ca         1 44Z      -0.201900
     30 CD5          3.5720     0.1170    -1.0350 ca         1 44Z      -0.005000
     31 CE5          4.9700     0.1740    -0.9320 ca         1 44Z      -0.246000
     32 CZ3          5.6130    -0.3300     0.2140 ca         1 44Z       0.195100
     33 CE6          4.8520    -0.8880     1.2480 ca         1 44Z      -0.249000
     34 CD6          3.4460    -0.9570     1.1480 ca         1 44Z       0.241100
     35 O6           2.6650    -1.4560     2.1750 os         1 44Z      -0.346100
     36 C9           3.1740    -2.2590     3.2550 c3         1 44Z       0.179300
     37 CM2          2.0400    -2.3600     4.2920 c3         1 44Z      -0.109100
     38 CM3          3.5730    -3.6430     2.6930 c3         1 44Z      -0.109100
     39 O3           6.9820    -0.2960     0.3730 os         1 44Z      -0.342100
     40 CM1          7.8570     0.2570    -0.6260 c3         1 44Z       0.148900
     41 CM4         -6.5300    -3.3800    -0.9690 c3         1 44Z       0.149900
     42 H21          2.1640     4.8540    -1.7810 h1         1 44Z       0.055200
     43 H22          0.9740     6.1740    -1.6920 h1         1 44Z       0.055200
     44 H32          0.6780     4.4070     0.1200 h1         1 44Z       0.073700
     45 H31         -0.7600     4.6580    -0.8720 h1         1 44Z       0.073700
     46 H42         -1.3780     2.4650    -2.6290 h1         1 44Z       0.081200
     47 H41          0.1720     1.7090    -3.0920 h1         1 44Z       0.081200
     48 H7          -0.3510    -1.9700    -1.8480 h1         1 44Z       0.081700
     49 H8          -1.1470     0.2380    -2.0520 h1         1 44Z       0.071700
     50 HD1         -0.5250     0.0310     1.7840 ha         1 44Z       0.127000
     51 HE1         -2.0970     0.9550     3.4480 ha         1 44Z       0.129500
     52 HE2         -4.7550     2.1910     0.2890 ha         1 44Z       0.129500
     53 HD2         -3.1940     1.2680    -1.4000 ha         1 44Z       0.127000
     54 HD3         -0.9520    -2.7170     1.6470 ha         1 44Z       0.136000
     55 HE3         -3.0250    -3.7340     2.5290 ha         1 44Z       0.109000
     56 HZ2         -5.0740    -3.8080     1.1530 ha         1 44Z       0.115000
     57 HD4         -2.9790    -1.8320    -2.0700 ha         1 44Z       0.121000
     58 HD5          3.0860     0.5010    -1.9300 ha         1 44Z       0.118000
     59 HE5          5.5330     0.6110    -1.7510 ha         1 44Z       0.122000
     60 HE6          5.3730    -1.2530     2.1250 ha         1 44Z       0.133000
     61 H9           4.0360    -1.7830     3.7380 h1         1 44Z       0.048700
     62 HM23         2.3550    -2.9690     5.1480 hc         1 44Z       0.047867
     63 HM21         1.7710    -1.3640     4.6640 hc         1 44Z       0.047867
     64 HM22         1.1470    -2.8190     3.8520 hc         1 44Z       0.047867
     65 HM33         2.7260    -4.1110     2.1770 hc         1 44Z       0.047867
     66 HM32         4.4050    -3.5600     1.9860 hc         1 44Z       0.047867
     67 HM31         3.8880    -4.3070     3.5060 hc         1 44Z       0.047867
     68 HM12         7.7590    -0.2860    -1.5750 h1         1 44Z       0.042033
     69 HM13         7.6290     1.3160    -0.8010 h1         1 44Z       0.042033
     70 HM11         8.9020     0.1840    -0.2990 h1         1 44Z       0.042033
     71 HM43        -7.2730    -3.2820    -1.7700 h1         1 44Z       0.039700
     72 HM42        -6.4290    -4.4450    -0.7280 h1         1 44Z       0.039700
     73 HM41        -6.9120    -2.8520    -0.0850 h1         1 44Z       0.039700
     74 H1           0.8920     5.5270    -3.9940 hn         1 44Z       0.320500
@<TRIPOS>BOND
     1     1    12 2   
     2     1    13 1   
     3     2     3 2   
     4     2     4 1   
     5     2     8 1   
     6     4     5 1   
     7     4    74 1   
     8     5     6 1   
     9     5    42 1   
    10     5    43 1   
    11     6     7 1   
    12     6    44 1   
    13     6    45 1   
    14     7     8 1   
    15     7     9 1   
    16     8    46 1   
    17     8    47 1   
    18     9    10 2   
    19     9    11 1   
    20    11    12 1   
    21    11    14 1   
    22    12    29 1   
    23    13    14 1   
    24    13    22 1   
    25    13    48 1   
    26    14    15 1   
    27    14    49 1   
    28    15    16 ar  
    29    15    21 ar  
    30    16    17 ar  
    31    16    50 1   
    32    17    18 ar  
    33    17    51 1   
    34    18    19 1   
    35    18    20 ar  
    36    20    21 ar  
    37    20    52 1   
    38    21    53 1   
    39    22    23 ar  
    40    22    28 ar  
    41    23    24 ar  
    42    23    54 1   
    43    24    25 ar  
    44    24    55 1   
    45    25    26 ar  
    46    25    56 1   
    47    26    27 1   
    48    26    28 ar  
    49    27    41 1   
    50    28    57 1   
    51    29    30 ar  
    52    29    34 ar  
    53    30    31 ar  
    54    30    58 1   
    55    31    32 ar  
    56    31    59 1   
    57    32    33 ar  
    58    32    39 1   
    59    33    34 ar  
    60    33    60 1   
    61    34    35 1   
    62    35    36 1   
    63    36    37 1   
    64    36    38 1   
    65    36    61 1   
    66    37    62 1   
    67    37    63 1   
    68    37    64 1   
    69    38    65 1   
    70    38    66 1   
    71    38    67 1   
    72    39    40 1   
    73    40    68 1   
    74    40    69 1   
    75    40    70 1   
    76    41    71 1   
    77    41    72 1   
    78    41    73 1   
@<TRIPOS>SUBSTRUCTURE
     1 44Z         1 TEMP              0 ****  ****    0 ROOT
