@<TRIPOS>MOLECULE
44Z
   74    78     1     0     0
SMALL
abcg2


@<TRIPOS>ATOM
      1 N            0.6810    -1.7140    -1.1350 n2         1 44Z      -0.599900
      2 C1           0.4210     4.0340    -3.2770 c          1 44Z       0.548000
      3 O1           0.2020     4.0890    -4.4790 o          1 44Z      -0.567000
      4 N1           1.1250     4.9580    -2.6160 ns         1 44Z      -0.504900
      5 C2           1.3800     4.9780    -1.1880 c6         1 44Z       0.086000
      6 C3           0.3490     4.1300    -0.4800 c6         1 44Z       0.086000
      7 N2           0.2860     2.8260    -1.1040 n          1 44Z      -0.414800
      8 C4          -0.1350     2.8590    -2.4850 c6         1 44Z       0.019000
      9 C5           0.8830     1.7620    -0.5100 c          1 44Z       0.677100
     10 O5           1.6300     1.8570     0.4430 o          1 44Z      -0.584100
     11 N3           0.5300     0.5280    -1.0650 n          1 44Z      -0.382300
     12 C6           1.2900    -0.6250    -0.9110 ce         1 44Z       0.543500
     13 C7          -0.7040    -1.4210    -1.4470 c5         1 44Z       0.155800
     14 C8          -0.8700     0.1350    -1.2700 c5         1 44Z       0.127000
     15 CG1         -1.7500     0.5740    -0.1340 ca         1 44Z      -0.105300
     16 CD1         -1.3770     0.3750     1.1930 ca         1 44Z      -0.080000
     17 CE1         -2.2170     0.7490     2.2280 ca         1 44Z      -0.106000
     18 CZ1         -3.4420     1.3270     1.9320 ca         1 44Z       0.127000
     19 CL          -4.4990     1.7930     3.2260 cl         1 44Z      -0.208000
     20 CE2         -3.8340     1.5400     0.6220 ca         1 44Z      -0.106000
     21 CD2         -2.9790     1.1610    -0.4030 ca         1 44Z      -0.080000
     22 CG2         -1.6650    -2.2420    -0.6270 ca         1 44Z      -0.038300
     23 CD3         -1.2650    -2.8610     0.5540 ca         1 44Z      -0.119000
     24 CE3         -2.1930    -3.5670     1.3000 ca         1 44Z      -0.080000
     25 CZ2         -3.5180    -3.6720     0.8950 ca         1 44Z      -0.192000
     26 CE4         -3.9170    -3.0540    -0.2880 ca         1 44Z       0.138100
     27 O4          -5.1720    -3.0880    -0.7770 os         1 44Z      -0.344100
     28 CD4         -2.9820    -2.3490    -1.0450 ca         1 44Z      -0.142000
     29 CG3          2.7250    -0.5600    -0.5830 ca         1 44Z      -0.201900
     30 CD5          3.6580    -0.1870    -1.5290 ca         1 44Z      -0.005000
     31 CE5          5.0190    -0.1560    -1.2420 ca         1 44Z      -0.246000
     32 CZ3          5.4360    -0.5080     0.0360 ca         1 44Z       0.195100
     33 CE6          4.5040    -0.8790     1.0110 ca         1 44Z      -0.249000
     34 CD6          3.1510    -0.8980     0.7110 ca         1 44Z       0.241100
     35 O6           2.1750    -1.2000     1.5760 os         1 44Z      -0.346100
     36 C9           2.4630    -1.5930     2.9200 c3         1 44Z       0.179300
     37 CM2          1.2070    -1.3170     3.7220 c3         1 44Z      -0.109100
     38 CM3          2.8650    -3.0570     2.9770 c3         1 44Z      -0.109100
     39 O3           6.7200    -0.5250     0.4350 os         1 44Z      -0.342100
     40 CM1          7.7220    -0.1540    -0.4910 c3         1 44Z       0.148900
     41 CM4         -6.1560    -3.8030    -0.0590 c3         1 44Z       0.149900
     42 H21          2.3860     4.6100    -0.9700 h1         1 44Z       0.055200
     43 H22          1.3210     6.0090    -0.8370 h1         1 44Z       0.055200
     44 H32          0.5970     4.0310     0.5730 h1         1 44Z       0.073700
     45 H31         -0.6380     4.5950    -0.5490 h1         1 44Z       0.073700
     46 H42         -1.2260     2.8950    -2.5710 h1         1 44Z       0.081200
     47 H41          0.2040     1.9640    -3.0050 h1         1 44Z       0.081200
     48 H7          -0.8750    -1.6550    -2.5030 h1         1 44Z       0.081700
     49 H8          -1.2690     0.5440    -2.1980 h1         1 44Z       0.071700
     50 HD1         -0.4250    -0.0790     1.4380 ha         1 44Z       0.127000
     51 HE1         -1.9200     0.5880     3.2560 ha         1 44Z       0.129500
     52 HE2         -4.7880     1.9970     0.3960 ha         1 44Z       0.129500
     53 HD2         -3.2830     1.3290    -1.4290 ha         1 44Z       0.127000
     54 HD3         -0.2390    -2.7790     0.8860 ha         1 44Z       0.136000
     55 HE3         -1.8870    -4.0500     2.2200 ha         1 44Z       0.109000
     56 HZ2         -4.2130    -4.2350     1.5020 ha         1 44Z       0.115000
     57 HD4         -3.3010    -1.8740    -1.9670 ha         1 44Z       0.121000
     58 HD5          3.3270     0.0850    -2.5240 ha         1 44Z       0.118000
     59 HE5          5.7160     0.1300    -2.0160 ha         1 44Z       0.122000
     60 HE6          4.8740    -1.1400     1.9940 ha         1 44Z       0.133000
     61 H9           3.2710    -0.9690     3.3190 h1         1 44Z       0.048700
     62 HM23         1.3660    -1.5930     4.7640 hc         1 44Z       0.047867
     63 HM21         0.9420    -0.2600     3.6910 hc         1 44Z       0.047867
     64 HM22         0.3620    -1.8980     3.3470 hc         1 44Z       0.047867
     65 HM33         2.0510    -3.6940     2.6260 hc         1 44Z       0.047867
     66 HM32         3.7470    -3.2710     2.3720 hc         1 44Z       0.047867
     67 HM31         3.0950    -3.3380     4.0050 hc         1 44Z       0.047867
     68 HM12         7.7350    -0.8120    -1.3630 h1         1 44Z       0.042033
     69 HM13         7.6020     0.8780    -0.8310 h1         1 44Z       0.042033
     70 HM11         8.6720    -0.2420     0.0300 h1         1 44Z       0.042033
     71 HM43        -7.0820    -3.7070    -0.6220 h1         1 44Z       0.039700
     72 HM42        -5.9080    -4.8640     0.0290 h1         1 44Z       0.039700
     73 HM41        -6.3110    -3.3940     0.9430 h1         1 44Z       0.039700
     74 H1           1.5210     5.7030    -3.1710 hn         1 44Z       0.320500
@<TRIPOS>BOND
     1     1    12 2   
     2     1    13 1   
     3     2     3 2   
     4     2     4 1   
     5     2     8 1   
     6     4     5 1   
     7     4    74 1   
     8     5     6 1   
     9     5    42 1   
    10     5    43 1   
    11     6     7 1   
    12     6    44 1   
    13     6    45 1   
    14     7     8 1   
    15     7     9 1   
    16     8    46 1   
    17     8    47 1   
    18     9    10 2   
    19     9    11 1   
    20    11    12 1   
    21    11    14 1   
    22    12    29 1   
    23    13    14 1   
    24    13    22 1   
    25    13    48 1   
    26    14    15 1   
    27    14    49 1   
    28    15    16 ar  
    29    15    21 ar  
    30    16    17 ar  
    31    16    50 1   
    32    17    18 ar  
    33    17    51 1   
    34    18    19 1   
    35    18    20 ar  
    36    20    21 ar  
    37    20    52 1   
    38    21    53 1   
    39    22    23 ar  
    40    22    28 ar  
    41    23    24 ar  
    42    23    54 1   
    43    24    25 ar  
    44    24    55 1   
    45    25    26 ar  
    46    25    56 1   
    47    26    27 1   
    48    26    28 ar  
    49    27    41 1   
    50    28    57 1   
    51    29    30 ar  
    52    29    34 ar  
    53    30    31 ar  
    54    30    58 1   
    55    31    32 ar  
    56    31    59 1   
    57    32    33 ar  
    58    32    39 1   
    59    33    34 ar  
    60    33    60 1   
    61    34    35 1   
    62    35    36 1   
    63    36    37 1   
    64    36    38 1   
    65    36    61 1   
    66    37    62 1   
    67    37    63 1   
    68    37    64 1   
    69    38    65 1   
    70    38    66 1   
    71    38    67 1   
    72    39    40 1   
    73    40    68 1   
    74    40    69 1   
    75    40    70 1   
    76    41    71 1   
    77    41    72 1   
    78    41    73 1   
@<TRIPOS>SUBSTRUCTURE
     1 44Z         1 TEMP              0 ****  ****    0 ROOT
