@<TRIPOS>MOLECULE
451
   57    59     1     0     0
SMALL
abcg2


@<TRIPOS>ATOM
      1 C1           4.5810     1.6130     0.6920 ca         1 451      -0.173000
      2 C2           4.8350     0.2660     0.4790 ca         1 451      -0.020000
      3 C3           3.7900    -0.5690     0.0650 ca         1 451      -0.198000
      4 C4           2.5220    -0.0470    -0.1320 ca         1 451       0.143100
      5 C5           2.2590     1.3150     0.1100 ca         1 451       0.096100
      6 C6           3.3020     2.1310     0.5100 ca         1 451      -0.148000
      7 O7           0.9830     1.7020    -0.0760 os         1 451      -0.304100
      8 C8           0.6250     3.0380     0.2140 c3         1 451       0.162600
      9 C9          -0.8760     3.1380     0.1740 c3         1 451       0.162600
     10 O10         -1.3280     2.8730    -1.1320 os         1 451      -0.441000
     11 C11         -2.7150     3.0070    -1.3250 c3         1 451       0.164600
     12 C12         -3.5060     1.7420    -1.0810 c3         1 451       0.133600
     13 O13         -3.4950     1.4240     0.3080 os         1 451      -0.356100
     14 C14         -4.4510     0.5580     0.7380 ca         1 451       0.074100
     15 C15         -4.3280    -0.8230     0.5080 ca         1 451       0.125100
     16 O16         -3.2470    -1.2190    -0.1880 os         1 451      -0.315100
     17 C17         -3.1130    -2.5950    -0.4990 c3         1 451       0.161600
     18 C18         -1.9320    -2.7790    -1.4130 c3         1 451       0.161600
     19 O19         -0.7380    -2.4760    -0.7410 os         1 451      -0.426000
     20 C20          0.3840    -2.6000    -1.5750 c3         1 451       0.159600
     21 C21          1.6240    -2.1300    -0.8600 c3         1 451       0.161600
     22 O22          1.4640    -0.7590    -0.5560 os         1 451      -0.308100
     23 C23         -5.5380     1.0460     1.4430 ca         1 451      -0.095000
     24 C24         -6.5100     0.1860     1.9430 ca         1 451      -0.140000
     25 C25         -6.3880    -1.1740     1.7200 ca         1 451      -0.079000
     26 C26         -5.3050    -1.6800     1.0080 ca         1 451      -0.196000
     27 N27          6.1460    -0.1790     0.6960 ns         1 451      -0.142000
     28 C28          6.6880    -1.4080     0.5160 c          1 451       0.609100
     29 O29          6.0610    -2.3820     0.1290 o          1 451      -0.594100
     30 C30          8.1590    -1.4940     0.8340 c3         1 451      -0.182100
     31 H1           5.3780     2.2780     1.0020 ha         1 451       0.107000
     32 H3           3.9760    -1.6170    -0.1000 ha         1 451       0.152000
     33 H6           3.1480     3.1860     0.6870 ha         1 451       0.117000
     34 H8           0.9590     3.3290     1.2170 h1         1 451       0.035700
     35 H8A          1.0840     3.7290    -0.5040 h1         1 451       0.035700
     36 H9          -1.3040     2.4470     0.9070 h1         1 451       0.042200
     37 H9A         -1.1520     4.1540     0.4890 h1         1 451       0.042200
     38 H11         -3.1250     3.8260    -0.7200 h1         1 451       0.045200
     39 H11A        -2.8670     3.2780    -2.3730 h1         1 451       0.045200
     40 H12         -4.5330     1.9170    -1.4210 h1         1 451       0.041700
     41 H12A        -3.0930     0.9180    -1.6710 h1         1 451       0.041700
     42 H17         -2.9930    -3.1900     0.4140 h1         1 451       0.042200
     43 H17A        -4.0020    -2.9640    -1.0220 h1         1 451       0.042200
     44 H18         -1.9420    -3.8220    -1.7580 h1         1 451       0.030700
     45 H18A        -2.0540    -2.1480    -2.3050 h1         1 451       0.030700
     46 H20          0.5460    -3.6440    -1.8770 h1         1 451       0.031200
     47 H20A         0.2540    -2.0180    -2.4980 h1         1 451       0.031200
     48 H21          1.8010    -2.7120     0.0510 h1         1 451       0.046200
     49 H21A         2.4740    -2.2930    -1.5320 h1         1 451       0.046200
     50 H23         -5.6120     2.1140     1.6090 ha         1 451       0.122000
     51 H24         -7.3520     0.5820     2.4940 ha         1 451       0.116000
     52 H25         -7.1330    -1.8600     2.1010 ha         1 451       0.112000
     53 H26         -5.2350    -2.7490     0.8570 ha         1 451       0.115000
     54 HN27         6.7780     0.5370     1.0170 hn         1 451       0.147000
     55 H30          8.5990    -0.5530     1.1610 hc         1 451       0.062033
     56 H30A         8.3170    -2.2380     1.6140 hc         1 451       0.062033
     57 H30B         8.6970    -1.8330    -0.0520 hc         1 451       0.062033
@<TRIPOS>BOND
     1     1     2 ar  
     2     1     6 ar  
     3     1    31 1   
     4     2     3 ar  
     5     2    27 1   
     6     3     4 ar  
     7     3    32 1   
     8     4     5 ar  
     9     4    22 1   
    10     5     6 ar  
    11     5     7 1   
    12     6    33 1   
    13     7     8 1   
    14     8     9 1   
    15     8    34 1   
    16     8    35 1   
    17     9    10 1   
    18     9    36 1   
    19     9    37 1   
    20    10    11 1   
    21    11    12 1   
    22    11    38 1   
    23    11    39 1   
    24    12    13 1   
    25    12    40 1   
    26    12    41 1   
    27    13    14 1   
    28    14    15 ar  
    29    14    23 ar  
    30    15    16 1   
    31    15    26 ar  
    32    16    17 1   
    33    17    18 1   
    34    17    42 1   
    35    17    43 1   
    36    18    19 1   
    37    18    44 1   
    38    18    45 1   
    39    19    20 1   
    40    20    21 1   
    41    20    46 1   
    42    20    47 1   
    43    21    22 1   
    44    21    48 1   
    45    21    49 1   
    46    23    24 ar  
    47    23    50 1   
    48    24    25 ar  
    49    24    51 1   
    50    25    26 ar  
    51    25    52 1   
    52    26    53 1   
    53    27    28 1   
    54    27    54 1   
    55    28    29 2   
    56    28    30 1   
    57    30    55 1   
    58    30    56 1   
    59    30    57 1   
@<TRIPOS>SUBSTRUCTURE
     1 451         1 TEMP              0 ****  ****    0 ROOT
