@<TRIPOS>MOLECULE
451
   57    59     1     0     0
SMALL
No Charge or Current Charge


@<TRIPOS>ATOM
      1 C1           4.4380     1.5260     1.0370 ca         1 451      -0.173000
      2 C2           4.7350     0.2180     0.6130 ca         1 451      -0.020000
      3 C3           3.7290    -0.5430    -0.0230 ca         1 451      -0.198000
      4 C4           2.4410     0.0040    -0.2270 ca         1 451       0.143100
      5 C5           2.1540     1.3150     0.2140 ca         1 451       0.096100
      6 C6           3.1600     2.0760     0.8440 ca         1 451      -0.148000
      7 O7           0.8740     1.8020     0.0230 os         1 451      -0.304100
      8 C8           0.4860     3.1550     0.3270 c3         1 451       0.162600
      9 C9          -1.0330     3.2650     0.0690 c3         1 451       0.162600
     10 O10         -1.2750     3.0670    -1.3440 os         1 451      -0.441000
     11 C11         -2.6500     2.8610    -1.7460 c3         1 451       0.164600
     12 C12         -3.1650     1.4880    -1.2360 c3         1 451       0.133600
     13 O13         -3.7930     1.6760     0.0500 os         1 451      -0.356100
     14 C14         -4.4730     0.6820     0.7420 ca         1 451       0.074100
     15 C15         -4.3360    -0.7230     0.5130 ca         1 451       0.125100
     16 O16         -3.4440    -1.2010    -0.4320 os         1 451      -0.315100
     17 C17         -3.2260    -2.6080    -0.6650 c3         1 451       0.161600
     18 C18         -2.1110    -2.7670    -1.7220 c3         1 451       0.161600
     19 O19         -0.8440    -2.4420    -1.1170 os         1 451      -0.426000
     20 C20          0.2800    -2.4910    -2.0170 c3         1 451       0.159600
     21 C21          1.5620    -2.0820    -1.2540 c3         1 451       0.161600
     22 O22          1.4350    -0.7000    -0.8680 os         1 451      -0.308100
     23 C23         -5.3460     1.1340     1.7490 ca         1 451      -0.095000
     24 C24         -6.0990     0.2290     2.5130 ca         1 451      -0.140000
     25 C25         -5.9830    -1.1470     2.2800 ca         1 451      -0.079000
     26 C26         -5.1070    -1.6220     1.2910 ca         1 451      -0.196000
     27 N27          6.0540    -0.2610     0.8510 ns         1 451      -0.142000
     28 C28          6.6730    -1.4780     0.5980 c          1 451       0.609100
     29 O29          6.1290    -2.4460     0.0780 o          1 451      -0.594100
     30 C30          8.1360    -1.5300     1.0310 c3         1 451      -0.182100
     31 H1           5.2040     2.1230     1.5260 ha         1 451       0.107000
     32 H3           3.9430    -1.5470    -0.3640 ha         1 451       0.152000
     33 H6           2.9680     3.0880     1.1910 ha         1 451       0.117000
     34 H8           0.6820     3.3870     1.3810 h1         1 451       0.035700
     35 H8A          1.0280     3.8730    -0.3020 h1         1 451       0.035700
     36 H9          -1.5350     2.5060     0.6810 h1         1 451       0.042200
     37 H9A         -1.3900     4.2530     0.3870 h1         1 451       0.042200
     38 H11         -3.2980     3.6690    -1.3830 h1         1 451       0.045200
     39 H11A        -2.7080     2.8590    -2.8420 h1         1 451       0.045200
     40 H12         -3.8930     1.0910    -1.9550 h1         1 451       0.041700
     41 H12A        -2.3170     0.7940    -1.1750 h1         1 451       0.041700
     42 H17         -2.9230    -3.1200     0.2580 h1         1 451       0.042200
     43 H17A        -4.1430    -3.0780    -1.0400 h1         1 451       0.042200
     44 H18         -2.1050    -3.8050    -2.0810 h1         1 451       0.030700
     45 H18A        -2.3210    -2.1110    -2.5770 h1         1 451       0.030700
     46 H20          0.4090    -3.5070    -2.4130 h1         1 451       0.031200
     47 H20A         0.1320    -1.8100    -2.8660 h1         1 451       0.031200
     48 H21          1.6940    -2.7270    -0.3760 h1         1 451       0.046200
     49 H21A         2.4210    -2.2190    -1.9220 h1         1 451       0.046200
     50 H23         -5.4440     2.2010     1.9320 ha         1 451       0.122000
     51 H24         -6.7740     0.5970     3.2830 ha         1 451       0.116000
     52 H25         -6.5690    -1.8490     2.8720 ha         1 451       0.112000
     53 H26         -5.0400    -2.6960     1.1480 ha         1 451       0.115000
     54 HN27         6.6580     0.4220     1.2910 hn         1 451       0.147000
     55 H30          8.6790    -0.7070     0.5540 hc         1 451       0.062033
     56 H30A         8.2030    -1.2670     2.0930 hc         1 451       0.062033
     57 H30B         8.6050    -2.4990     0.8240 hc         1 451       0.062033
@<TRIPOS>BOND
     1     1     2 ar  
     2     1     6 ar  
     3     1    31 1   
     4     2     3 ar  
     5     2    27 1   
     6     3     4 ar  
     7     3    32 1   
     8     4     5 ar  
     9     4    22 1   
    10     5     6 ar  
    11     5     7 1   
    12     6    33 1   
    13     7     8 1   
    14     8     9 1   
    15     8    34 1   
    16     8    35 1   
    17     9    10 1   
    18     9    36 1   
    19     9    37 1   
    20    10    11 1   
    21    11    12 1   
    22    11    38 1   
    23    11    39 1   
    24    12    13 1   
    25    12    40 1   
    26    12    41 1   
    27    13    14 1   
    28    14    15 ar  
    29    14    23 ar  
    30    15    16 1   
    31    15    26 ar  
    32    16    17 1   
    33    17    18 1   
    34    17    42 1   
    35    17    43 1   
    36    18    19 1   
    37    18    44 1   
    38    18    45 1   
    39    19    20 1   
    40    20    21 1   
    41    20    46 1   
    42    20    47 1   
    43    21    22 1   
    44    21    48 1   
    45    21    49 1   
    46    23    24 ar  
    47    23    50 1   
    48    24    25 ar  
    49    24    51 1   
    50    25    26 ar  
    51    25    52 1   
    52    26    53 1   
    53    27    28 1   
    54    27    54 1   
    55    28    29 2   
    56    28    30 1   
    57    30    55 1   
    58    30    56 1   
    59    30    57 1   
@<TRIPOS>SUBSTRUCTURE
     1 451         1 TEMP              0 ****  ****    0 ROOT
