@<TRIPOS>MOLECULE
452
   38    39     1     0     0
SMALL
No Charge or Current Charge


@<TRIPOS>ATOM
      1 C1           4.3100    -3.7110    -0.1890 c3         1 452      -0.191100
      2 C2           3.2150    -2.7480     0.2770 c          1 452       0.591700
      3 O1           2.1500    -3.2120     0.6650 o          1 452      -0.545100
      4 C3           3.4770    -1.2530     0.2490 ca         1 452      -0.277600
      5 C4           4.8090    -0.7740     0.1380 ca         1 452      -0.051000
      6 C5           5.0770     0.6030     0.1030 ca         1 452       0.066000
      7 C6           4.0230     1.5260     0.1780 ca         1 452       0.160000
      8 C7           2.7050     1.0690     0.2880 ca         1 452      -0.202000
      9 C8           2.4240    -0.3070     0.3230 ca         1 452       0.415000
     10 N1           1.0990    -0.7160     0.4270 nu         1 452      -0.933200
     11 C9          -0.1380     0.0390     0.0420 c3         1 452       0.123800
     12 C10         -1.4510    -0.8060     0.1060 c          1 452       0.593100
     13 O2          -1.4430    -2.0080     0.3730 o          1 452      -0.634100
     14 N2          -2.5990    -0.0700    -0.1490 ns         1 452      -0.163000
     15 C11         -3.9760    -0.4170    -0.2390 ca         1 452      -0.002000
     16 C12         -4.3980    -1.7620    -0.3430 ca         1 452      -0.172000
     17 C13         -5.7600    -2.0850    -0.4290 ca         1 452      -0.105000
     18 C14         -6.7210    -1.0680    -0.4170 ca         1 452      -0.171000
     19 C15         -6.3210     0.2730    -0.3240 ca         1 452      -0.063000
     20 C16         -4.9520     0.6200    -0.2400 ca         1 452      -0.194600
     21 C17         -4.5810     2.0920    -0.1400 c          1 452       0.724600
     22 O3          -5.3730     2.8490     0.4030 o          1 452      -0.705000
     23 O4          -3.5190     2.4680    -0.6160 o          1 452      -0.705000
     24 Cl1          4.3380     3.2600     0.1390 cl         1 452      -0.180000
     25 F1           6.3570     1.0290    -0.0010 f          1 452      -0.178000
     26 H11          5.1460    -3.6630     0.5170 hc         1 452       0.056033
     27 H12A         3.9490    -4.7420    -0.2800 hc         1 452       0.056033
     28 H13A         4.7500    -3.3450    -1.1240 hc         1 452       0.056033
     29 H4           5.6540    -1.4540     0.0850 ha         1 452       0.121000
     30 H7           1.9030     1.7950     0.3510 ha         1 452       0.144000
     31 HN1          0.9910    -1.7350     0.5540 hn         1 452       0.554000
     32 H91         -0.2750     0.9090     0.6990 h1         1 452       0.069700
     33 H92         -0.0490     0.4130    -0.9870 h1         1 452       0.069700
     34 HN2         -2.4300     0.9160    -0.3190 hn         1 452       0.235000
     35 H12         -3.6800    -2.5760    -0.3700 ha         1 452       0.130000
     36 H13         -6.0690    -3.1250    -0.5090 ha         1 452       0.088000
     37 H14         -7.7780    -1.3170    -0.4840 ha         1 452       0.091000
     38 H15         -7.0840     1.0500    -0.3230 ha         1 452       0.128000
@<TRIPOS>BOND
     1     1     2 1   
     2     1    26 1   
     3     1    27 1   
     4     1    28 1   
     5     2     3 2   
     6     2     4 1   
     7     4     5 ar  
     8     4     9 ar  
     9     5     6 ar  
    10     5    29 1   
    11     6     7 ar  
    12     6    25 1   
    13     7     8 ar  
    14     7    24 1   
    15     8     9 ar  
    16     8    30 1   
    17     9    10 1   
    18    10    11 1   
    19    10    31 1   
    20    11    12 1   
    21    11    32 1   
    22    11    33 1   
    23    12    13 2   
    24    12    14 1   
    25    14    15 1   
    26    14    34 1   
    27    15    16 ar  
    28    15    20 ar  
    29    16    17 ar  
    30    16    35 1   
    31    17    18 ar  
    32    17    36 1   
    33    18    19 ar  
    34    18    37 1   
    35    19    20 ar  
    36    19    38 1   
    37    20    21 1   
    38    21    22 1   
    39    21    23 1   
@<TRIPOS>SUBSTRUCTURE
     1 452         1 TEMP              0 ****  ****    0 ROOT
