@<TRIPOS>MOLECULE
452
   38    39     1     0     0
SMALL
bcc


@<TRIPOS>ATOM
      1 C1           4.4010    -3.6370     0.0350 c3         1 452      -0.191100
      2 C2           3.1830    -2.7490     0.0160 c          1 452       0.591700
      3 O1           2.0710    -3.2540    -0.0460 o          1 452      -0.545100
      4 C3           3.3670    -1.2900     0.0740 ca         1 452      -0.277600
      5 C4           4.6660    -0.7700     0.1380 ca         1 452      -0.069000
      6 C5           4.8960     0.5770     0.2020 ca         1 452       0.030900
      7 C6           3.8240     1.4600     0.2060 ca         1 452       0.068400
      8 C7           2.5320     0.9930     0.1410 ca         1 452      -0.220000
      9 C8           2.2610    -0.3900     0.0690 ca         1 452       0.276600
     10 N1           0.9890    -0.8230    -0.0020 nu         1 452      -0.739600
     11 C9          -0.1540     0.0350     0.0080 c3         1 452       0.123800
     12 C10         -1.4250    -0.8010    -0.0780 c          1 452       0.660100
     13 O2          -1.3840    -2.0210    -0.0850 o          1 452      -0.634100
     14 N2          -2.5300    -0.0400    -0.1340 ns         1 452      -0.489100
     15 C11         -3.8720    -0.4130    -0.1840 ca         1 452       0.090600
     16 C12         -4.2980    -1.7450    -0.2170 ca         1 452      -0.190000
     17 C13         -5.6490    -2.0460    -0.2670 ca         1 452      -0.123000
     18 C14         -6.5990    -1.0360    -0.2860 ca         1 452      -0.189000
     19 C15         -6.1770     0.2830    -0.2540 ca         1 452      -0.081000
     20 C16         -4.8290     0.6260    -0.2030 ca         1 452      -0.194600
     21 C17         -4.4650     2.1080    -0.1720 c          1 452       0.935200
     22 O3          -5.3930     2.9240    -0.1830 o          1 452      -0.810300
     23 O4          -3.2390     2.4050    -0.1380 o          1 452      -0.810300
     24 CL1          4.1310     3.1490     0.2920 cl         1 452      -0.088400
     25 F1           6.1470     1.0530     0.2580 f          1 452      -0.142900
     26 H11          4.9950    -3.4820     0.9360 hc         1 452       0.056033
     27 H12A         4.0920    -4.6790    -0.0030 hc         1 452       0.056033
     28 H13A         5.0510    -3.4380    -0.8180 hc         1 452       0.056033
     29 H4           5.5210    -1.4320     0.1390 ha         1 452       0.139000
     30 H7           1.7250     1.7110     0.1460 ha         1 452       0.162000
     31 HN1          0.8390    -1.8230    -0.0330 hn         1 452       0.498800
     32 H91         -0.2020     0.6410     0.9220 h1         1 452       0.069700
     33 H92         -0.1420     0.7410    -0.8310 h1         1 452       0.069700
     34 HN2         -2.4580     1.0010    -0.1240 hn         1 452       0.401500
     35 H12         -3.5770    -2.5450    -0.2040 ha         1 452       0.148000
     36 H13         -5.9550    -3.0850    -0.2920 ha         1 452       0.106000
     37 H14         -7.6550    -1.2710    -0.3250 ha         1 452       0.109000
     38 H15         -6.9080     1.0790    -0.2680 ha         1 452       0.146000
@<TRIPOS>BOND
     1     1     2 1   
     2     1    26 1   
     3     1    27 1   
     4     1    28 1   
     5     2     3 2   
     6     2     4 1   
     7     4     5 ar  
     8     4     9 ar  
     9     5     6 ar  
    10     5    29 1   
    11     6     7 ar  
    12     6    25 1   
    13     7     8 ar  
    14     7    24 1   
    15     8     9 ar  
    16     8    30 1   
    17     9    10 1   
    18    10    11 1   
    19    10    31 1   
    20    11    12 1   
    21    11    32 1   
    22    11    33 1   
    23    12    13 2   
    24    12    14 1   
    25    14    15 1   
    26    14    34 1   
    27    15    16 ar  
    28    15    20 ar  
    29    16    17 ar  
    30    16    35 1   
    31    17    18 ar  
    32    17    36 1   
    33    18    19 ar  
    34    18    37 1   
    35    19    20 ar  
    36    19    38 1   
    37    20    21 1   
    38    21    22 1   
    39    21    23 1   
@<TRIPOS>SUBSTRUCTURE
     1 452         1 TEMP              0 ****  ****    0 ROOT
