@<TRIPOS>MOLECULE
453
   59    63     1     0     0
SMALL
No Charge or Current Charge


@<TRIPOS>ATOM
      1 OBC         -1.8470     4.0120    -2.9140 o          1 453      -0.588100
      2 CBB         -1.3070     3.3710    -2.0230 c          1 453       0.624700
      3 NBD         -2.0000     2.9810    -0.8990 ns         1 453      -0.470900
      4 CBE         -3.4420     3.1690    -0.6730 c3         1 453       0.048700
      5 CBF         -4.0400     2.0390     0.1660 ca         1 453       0.315300
      6 CBK         -5.0540     1.2090    -0.3510 ca         1 453      -0.153000
      7 CBJ         -5.5500     0.1570     0.4360 ca         1 453      -0.066000
      8 CBI         -5.0030    -0.0250     1.7170 ca         1 453      -0.165000
      9 CBH         -3.9910     0.8440     2.1600 ca         1 453       0.352900
     10 NBG         -3.5130     1.8600     1.4030 nb         1 453      -0.687000
     11 CAY          0.1470     2.9670    -2.0480 ca         1 453      -0.202600
     12 CAZ          0.8360     2.6840    -0.8440 ca         1 453      -0.058000
     13 CAX          0.8420     2.8190    -3.2690 ca         1 453       0.221000
     14 FBA          0.2380     3.0610    -4.4550 f          1 453      -0.159000
     15 CAW          2.1670     2.3590    -3.2840 ca         1 453      -0.165000
     16 CAV          2.8230     2.0380    -2.0860 ca         1 453      -0.056000
     17 CAU          2.1630     2.2090    -0.8530 ca         1 453      -0.149300
     18 CAN          2.8440     1.8350     0.4730 c6         1 453       0.242200
     19 NAO          4.2050     2.3770     0.4800 ns         1 453      -0.504900
     20 CAP          5.3520     1.6560     0.3210 c          1 453       0.611000
     21 OAT          6.4410     2.1840     0.2070 o          1 453      -0.580000
     22 NAQ          5.1850     0.3030     0.3020 ns         1 453      -0.425100
     23 CAR          3.9940    -0.3860     0.5460 c2         1 453       0.109400
     24 CAS          4.2480    -1.8800     0.6780 c3         1 453      -0.078900
     25 CAM          2.8350     0.3120     0.6840 ce         1 453      -0.296400
     26 CAK          1.4690    -0.2500     1.0210 c          1 453       0.630300
     27 OAL          0.5240     0.4900     1.2640 o          1 453      -0.587100
     28 NAJ          1.3400    -1.6310     1.0620 ns         1 453      -0.153000
     29 CAG          0.2070    -2.4730     1.2540 ca         1 453      -0.095000
     30 CAF          0.4440    -3.8290     1.5840 ca         1 453      -0.042000
     31 CAH         -1.1330    -2.0160     1.0930 ca         1 453      -0.062000
     32 CAI         -2.2230    -2.8970     1.2760 ca         1 453      -0.131000
     33 CAE         -1.9400    -4.2240     1.6140 ca         1 453      -0.043200
     34 CAD         -0.6670    -4.6650     1.7590 ca         1 453      -0.219900
     35 NAA         -2.7970    -5.2840     1.8390 na         1 453      -0.066400
     36 NAB         -2.0630    -6.4480     2.1420 nc         1 453      -0.522100
     37 CAC         -0.7730    -6.0660     2.0930 cd         1 453       0.367800
     38 H1          -1.4900     2.4340    -0.2170 hn         1 453       0.320500
     39 H2          -3.5980     4.1240    -0.1550 h1         1 453       0.069700
     40 H3          -3.9610     3.2190    -1.6380 h1         1 453       0.069700
     41 H4          -5.4450     1.3760    -1.3510 ha         1 453       0.123000
     42 H5          -6.3330    -0.5010     0.0630 ha         1 453       0.119000
     43 H6          -5.3530    -0.8260     2.3620 ha         1 453       0.121000
     44 H7          -3.5500     0.7230     3.1490 h4         1 453       0.038100
     45 H8           0.3440     2.8220     0.1170 ha         1 453       0.146000
     46 H9           2.6800     2.2300    -4.2340 ha         1 453       0.138000
     47 H10          3.8400     1.6540    -2.1210 ha         1 453       0.125000
     48 H11          2.3070     2.3180     1.3040 h1         1 453       0.090700
     49 H12          4.3170     3.3810     0.4980 hn         1 453       0.336500
     50 H13          6.0360    -0.2300     0.1780 hn         1 453       0.337500
     51 H14          3.7090    -2.4430    -0.0930 hc         1 453       0.063033
     52 H15          5.3090    -2.1360     0.5690 hc         1 453       0.063033
     53 H16          3.9380    -2.2490     1.6630 hc         1 453       0.063033
     54 H17          2.1990    -2.1340     0.8940 hn         1 453       0.158000
     55 H18          1.4550    -4.2140     1.7040 ha         1 453       0.139000
     56 H19         -1.3480    -0.9900     0.8080 ha         1 453       0.124000
     57 H20         -3.2470    -2.5530     1.1490 ha         1 453       0.121000
     58 H21         -3.8150    -5.2700     1.8000 hn         1 453       0.373000
     59 H22          0.0050    -6.7930     2.2920 h4         1 453       0.061800
@<TRIPOS>BOND
     1     1     2 2   
     2     2     3 1   
     3     2    11 1   
     4     3     4 1   
     5     3    38 1   
     6     4     5 1   
     7     4    39 1   
     8     4    40 1   
     9     5     6 ar  
    10     5    10 ar  
    11     6     7 ar  
    12     6    41 1   
    13     7     8 ar  
    14     7    42 1   
    15     8     9 ar  
    16     8    43 1   
    17     9    10 ar  
    18     9    44 1   
    19    11    12 ar  
    20    11    13 ar  
    21    12    17 ar  
    22    12    45 1   
    23    13    14 1   
    24    13    15 ar  
    25    15    16 ar  
    26    15    46 1   
    27    16    17 ar  
    28    16    47 1   
    29    17    18 1   
    30    18    19 1   
    31    18    25 1   
    32    18    48 1   
    33    19    20 1   
    34    19    49 1   
    35    20    21 2   
    36    20    22 1   
    37    22    23 1   
    38    22    50 1   
    39    23    24 1   
    40    23    25 2   
    41    24    51 1   
    42    24    52 1   
    43    24    53 1   
    44    25    26 1   
    45    26    27 2   
    46    26    28 1   
    47    28    29 1   
    48    28    54 1   
    49    29    30 ar  
    50    29    31 ar  
    51    30    34 ar  
    52    30    55 1   
    53    31    32 ar  
    54    31    56 1   
    55    32    33 ar  
    56    32    57 1   
    57    33    34 ar  
    58    33    35 1   
    59    34    37 1   
    60    35    36 1   
    61    35    58 1   
    62    36    37 2   
    63    37    59 1   
@<TRIPOS>SUBSTRUCTURE
     1 453         1 TEMP              0 ****  ****    0 ROOT
