@<TRIPOS>MOLECULE
453
   59    63     1     0     0
SMALL
bcc


@<TRIPOS>ATOM
      1 OBC         -1.6430     0.2210    -2.8110 o          1 453      -0.588100
      2 CBB         -1.2640     1.2330    -2.2450 c          1 453       0.691700
      3 NBD         -2.0870     2.1190    -1.6620 ns         1 453      -0.537900
      4 CBE         -3.4480     1.7910    -1.3360 c3         1 453       0.048700
      5 CBF         -3.5660     0.9560    -0.0780 ca         1 453       0.380600
      6 CBK         -4.7240     0.2270     0.1690 ca         1 453      -0.236300
      7 CBJ         -4.8220    -0.4890     1.3490 ca         1 453      -0.084000
      8 CBI         -3.7570    -0.4600     2.2370 ca         1 453      -0.248300
      9 CBH         -2.6380     0.2800     1.8920 ca         1 453       0.418200
     10 NBG         -2.5460     0.9800     0.7680 nb         1 453      -0.687000
     11 CAY          0.1900     1.5650    -2.1290 ca         1 453      -0.202600
     12 CAZ          0.7620     1.7540    -0.8750 ca         1 453      -0.076000
     13 CAX          1.0190     1.5980    -3.2390 ca         1 453       0.185900
     14 FBA          0.4850     1.4410    -4.4560 f          1 453      -0.123900
     15 CAW          2.3740     1.8270    -3.1270 ca         1 453      -0.183000
     16 CAV          2.9270     1.9890    -1.8640 ca         1 453      -0.074000
     17 CAU          2.1320     1.9430    -0.7250 ca         1 453      -0.149300
     18 CAN          2.7220     1.9950     0.6780 c6         1 453       0.242200
     19 NAO          3.9880     2.6820     0.7500 ns         1 453      -0.571900
     20 CAP          5.2040     2.0970     0.6830 c          1 453       0.820500
     21 OAT          6.2460     2.7200     0.5470 o          1 453      -0.655500
     22 NAQ          5.1920     0.7290     0.8090 ns         1 453      -0.492100
     23 CAR          4.0800    -0.0020     1.1960 c2         1 453       0.109400
     24 CAS          4.3910    -1.4000     1.6190 c3         1 453      -0.078900
     25 CAM          2.8750     0.5800     1.1830 ce         1 453      -0.296400
     26 CAK          1.6130    -0.0720     1.6190 c          1 453       0.697300
     27 OAL          0.9220     0.4080     2.5040 o          1 453      -0.587100
     28 NAJ          1.2700    -1.1790     0.9220 ns         1 453      -0.479100
     29 CAG          0.0340    -1.8520     1.0690 ca         1 453      -0.002400
     30 CAF         -0.8200    -1.9220    -0.0070 ca         1 453      -0.060000
     31 CAH         -0.2960    -2.4530     2.3040 ca         1 453      -0.080000
     32 CAI         -1.4800    -3.1270     2.4820 ca         1 453      -0.149000
     33 CAE         -2.3450    -3.1980     1.3850 ca         1 453      -0.043200
     34 CAD         -2.0260    -2.6100     0.1500 ca         1 453      -0.219900
     35 NAA         -3.5670    -3.7550     1.2240 na         1 453      -0.016100
     36 NAB         -4.0530    -3.5650    -0.0060 nc         1 453      -0.522100
     37 CAC         -3.1540    -2.8820    -0.6670 cd         1 453       0.367800
     38 H1          -1.6740     2.8940    -1.1680 hn         1 453       0.320500
     39 H2          -3.9960     2.7260    -1.2030 h1         1 453       0.069700
     40 H3          -3.9150     1.2740    -2.1740 h1         1 453       0.069700
     41 H4          -5.5290     0.2170    -0.5560 ha         1 453       0.141000
     42 H5          -5.7100    -1.0680     1.5690 ha         1 453       0.137000
     43 H6          -3.7820    -1.0100     3.1680 ha         1 453       0.139000
     44 H7          -1.7720     0.3010     2.5420 h4         1 453       0.038100
     45 H8           0.1160     1.7170    -0.0040 ha         1 453       0.164000
     46 H9           2.9940     1.8760    -4.0130 ha         1 453       0.156000
     47 H10          3.9930     2.1580    -1.7880 ha         1 453       0.143000
     48 H11          2.0190     2.5320     1.3210 h1         1 453       0.090700
     49 H12          3.9760     3.6840     0.6350 hn         1 453       0.336500
     50 H13          6.0980     0.2920     0.8750 hn         1 453       0.337500
     51 H14          4.7850    -1.9720     0.7770 hc         1 453       0.063033
     52 H15          5.1560    -1.3970     2.3980 hc         1 453       0.063033
     53 H16          3.5210    -1.9230     2.0030 hc         1 453       0.063033
     54 H17          1.8140    -1.3910     0.1000 hn         1 453       0.324500
     55 H18         -0.5680    -1.4480    -0.9470 ha         1 453       0.157000
     56 H19          0.4080    -2.3940     3.1220 ha         1 453       0.142000
     57 H20         -1.7250    -3.5840     3.4320 ha         1 453       0.139000
     58 H21         -4.1130    -4.2560     1.9040 hn         1 453       0.322700
     59 H22         -3.3250    -2.5910    -1.6920 h4         1 453       0.061800
@<TRIPOS>BOND
     1     1     2 2   
     2     2     3 1   
     3     2    11 1   
     4     3     4 1   
     5     3    38 1   
     6     4     5 1   
     7     4    39 1   
     8     4    40 1   
     9     5     6 ar  
    10     5    10 ar  
    11     6     7 ar  
    12     6    41 1   
    13     7     8 ar  
    14     7    42 1   
    15     8     9 ar  
    16     8    43 1   
    17     9    10 ar  
    18     9    44 1   
    19    11    12 ar  
    20    11    13 ar  
    21    12    17 ar  
    22    12    45 1   
    23    13    14 1   
    24    13    15 ar  
    25    15    16 ar  
    26    15    46 1   
    27    16    17 ar  
    28    16    47 1   
    29    17    18 1   
    30    18    19 1   
    31    18    25 1   
    32    18    48 1   
    33    19    20 1   
    34    19    49 1   
    35    20    21 2   
    36    20    22 1   
    37    22    23 1   
    38    22    50 1   
    39    23    24 1   
    40    23    25 2   
    41    24    51 1   
    42    24    52 1   
    43    24    53 1   
    44    25    26 1   
    45    26    27 2   
    46    26    28 1   
    47    28    29 1   
    48    28    54 1   
    49    29    30 ar  
    50    29    31 ar  
    51    30    34 ar  
    52    30    55 1   
    53    31    32 ar  
    54    31    56 1   
    55    32    33 ar  
    56    32    57 1   
    57    33    34 ar  
    58    33    35 1   
    59    34    37 1   
    60    35    36 1   
    61    35    58 1   
    62    36    37 2   
    63    37    59 1   
@<TRIPOS>SUBSTRUCTURE
     1 453         1 TEMP              0 ****  ****    0 ROOT
