@<TRIPOS>MOLECULE
454
   40    43     1     0     0
SMALL
No Charge or Current Charge


@<TRIPOS>ATOM
      1 C1          -2.9450    -3.2470    -0.7610 ca         1 454      -0.107000
      2 N1           1.2250    -0.1450    -1.7290 n2         1 454      -0.627900
      3 C2          -3.4360    -2.0220    -0.2870 ca         1 454      -0.120750
      4 N2           2.1240    -0.2210     0.4450 nh         1 454      -0.793600
      5 C3          -2.5460    -1.0070     0.1030 ca         1 454      -0.085500
      6 N3           0.3760    -0.3950     1.8340 n2         1 454      -0.708900
      7 C4          -1.1460    -1.1910     0.0120 ca         1 454      -0.070300
      8 N4           2.5110    -0.5870     2.6540 nv         1 454      -1.025200
      9 C5          -0.6690    -2.4450    -0.4440 ca         1 454      -0.085500
     10 C6          -1.5600    -3.4590    -0.8330 ca         1 454      -0.120750
     11 C7          -0.1650    -0.0810     0.4590 c5         1 454       0.212500
     12 C8           1.0970    -0.0850    -0.4420 c2         1 454       0.606200
     13 C9           2.5650    -0.2300    -2.3500 c6         1 454       0.113800
     14 C10          3.7230     0.0690    -1.3720 c6         1 454      -0.123400
     15 C11          3.4670    -0.6210    -0.0220 c6         1 454       0.242800
     16 C12          1.6310    -0.4640     1.6690 c2         1 454       0.825100
     17 C13         -0.7680     1.3410     0.3430 ca         1 454      -0.070300
     18 C14         -0.8360     2.2270     1.4460 ca         1 454      -0.085500
     19 C15         -1.3890     3.5120     1.3070 ca         1 454      -0.120750
     20 C16         -1.8850     3.9370     0.0660 ca         1 454      -0.107000
     21 C17         -1.8290     3.0740    -1.0370 ca         1 454      -0.120750
     22 C18         -1.2770     1.7890    -0.8990 ca         1 454      -0.085500
     23 H1          -3.6350    -4.0340    -1.0610 ha         1 454       0.109000
     24 H2          -4.5090    -1.8590    -0.2150 ha         1 454       0.109250
     25 H3          -2.9550    -0.0740     0.4840 ha         1 454       0.128250
     26 HN4          3.2960     0.0280     2.5100 hn         1 454       0.482000
     27 HN4A         2.0610    -0.4720     3.5510 hn         1 454       0.482000
     28 H5           0.3990    -2.6430    -0.4940 ha         1 454       0.128250
     29 H6          -1.1750    -4.4130    -1.1870 ha         1 454       0.109250
     30 H9           2.6860    -1.2440    -2.7610 h1         1 454       0.060200
     31 H9A          2.6140     0.4730    -3.1950 h1         1 454       0.060200
     32 H10          4.6800    -0.2590    -1.7990 hc         1 454       0.057700
     33 H10A         3.8000     1.1530    -1.2150 hc         1 454       0.057700
     34 H11          4.2530    -0.3320     0.6910 h1         1 454       0.045200
     35 H11A         3.5110    -1.7130    -0.1520 h1         1 454       0.045200
     36 H14         -0.4640     1.9290     2.4230 ha         1 454       0.128250
     37 H15         -1.4320     4.1780     2.1660 ha         1 454       0.109250
     38 H16         -2.3130     4.9320    -0.0390 ha         1 454       0.109000
     39 H17         -2.2160     3.3980    -2.0010 ha         1 454       0.109250
     40 H18         -1.2490     1.1330    -1.7670 ha         1 454       0.128250
@<TRIPOS>BOND
     1     1     3 ar  
     2     1    10 ar  
     3     1    23 1   
     4     2    12 2   
     5     2    13 1   
     6     3     5 ar  
     7     3    24 1   
     8     4    12 1   
     9     4    15 1   
    10     4    16 1   
    11     5     7 ar  
    12     5    25 1   
    13     6    11 1   
    14     6    16 2   
    15     7     9 ar  
    16     7    11 1   
    17     8    16 1   
    18     8    26 1   
    19     8    27 1   
    20     9    10 ar  
    21     9    28 1   
    22    10    29 1   
    23    11    12 1   
    24    11    17 1   
    25    13    14 1   
    26    13    30 1   
    27    13    31 1   
    28    14    15 1   
    29    14    32 1   
    30    14    33 1   
    31    15    34 1   
    32    15    35 1   
    33    17    18 ar  
    34    17    22 ar  
    35    18    19 ar  
    36    18    36 1   
    37    19    20 ar  
    38    19    37 1   
    39    20    21 ar  
    40    20    38 1   
    41    21    22 ar  
    42    21    39 1   
    43    22    40 1   
@<TRIPOS>SUBSTRUCTURE
     1 454         1 TEMP              0 ****  ****    0 ROOT
