@<TRIPOS>MOLECULE
454
   40    43     1     0     0
SMALL
abcg2


@<TRIPOS>ATOM
      1 C1          -3.0800    -3.0660    -0.5910 ca         1 454      -0.107000
      2 N1           1.3920    -0.0420    -1.6620 n2         1 454      -0.627900
      3 C2          -3.0670    -2.4270     0.6430 ca         1 454      -0.120750
      4 N2           2.1550    -0.4310     0.5380 nh         1 454      -0.793600
      5 C3          -2.0980    -1.4770     0.9280 ca         1 454      -0.085500
      6 N3           0.2730    -0.2140     1.7430 n2         1 454      -0.708900
      7 C4          -1.1260    -1.1430    -0.0140 ca         1 454      -0.070300
      8 N4           2.2510    -0.7370     2.8750 nv         1 454      -1.025200
      9 C5          -1.1480    -1.7830    -1.2480 ca         1 454      -0.085500
     10 C6          -2.1170    -2.7390    -1.5330 ca         1 454      -0.120750
     11 C7          -0.1150    -0.0530     0.3530 c5         1 454       0.212500
     12 C8           1.2040    -0.1690    -0.4190 c2         1 454       0.606200
     13 C9           2.7560    -0.1980    -2.1410 c6         1 454       0.113800
     14 C10          3.8190     0.1200    -1.0960 c6         1 454      -0.123400
     15 C11          3.5470    -0.6330     0.1980 c6         1 454       0.242800
     16 C12          1.5360    -0.4410     1.7700 c2         1 454       0.825100
     17 C13         -0.7470     1.3130     0.0980 ca         1 454      -0.070300
     18 C14         -0.8750     2.2440     1.1210 ca         1 454      -0.085500
     19 C15         -1.4570     3.4850     0.8800 ca         1 454      -0.120750
     20 C16         -1.9150     3.8090    -0.3880 ca         1 454      -0.107000
     21 C17         -1.7880     2.8810    -1.4160 ca         1 454      -0.120750
     22 C18         -1.2130     1.6430    -1.1750 ca         1 454      -0.085500
     23 H1          -3.8350    -3.8100    -0.8130 ha         1 454       0.109000
     24 H2          -3.8110    -2.6720     1.3900 ha         1 454       0.109250
     25 H3          -2.0910    -0.9930     1.8950 ha         1 454       0.128250
     26 HN4          3.2440    -0.5720     2.8790 hn         1 454       0.482000
     27 HN4A         1.7990    -0.5460     3.7540 hn         1 454       0.482000
     28 H5          -0.4080    -1.5370    -1.9980 ha         1 454       0.128250
     29 H6          -2.1130    -3.2300    -2.4980 ha         1 454       0.109250
     30 H9           2.8860    -1.2220    -2.5060 h1         1 454       0.060200
     31 H9A          2.8900     0.4510    -3.0090 h1         1 454       0.060200
     32 H10          4.8080    -0.1470    -1.4700 hc         1 454       0.057700
     33 H10A         3.8280     1.1940    -0.8930 hc         1 454       0.057700
     34 H11          4.1870    -0.2530     0.9940 h1         1 454       0.045200
     35 H11A         3.7560    -1.6990     0.0810 h1         1 454       0.045200
     36 H14         -0.5230     1.9960     2.1120 ha         1 454       0.128250
     37 H15         -1.5520     4.1960     1.6900 ha         1 454       0.109250
     38 H16         -2.3690     4.7730    -0.5770 ha         1 454       0.109000
     39 H17         -2.1420     3.1230    -2.4100 ha         1 454       0.109250
     40 H18         -1.1220     0.9330    -1.9850 ha         1 454       0.128250
@<TRIPOS>BOND
     1     1     3 ar  
     2     1    10 ar  
     3     1    23 1   
     4     2    12 2   
     5     2    13 1   
     6     3     5 ar  
     7     3    24 1   
     8     4    12 1   
     9     4    15 1   
    10     4    16 1   
    11     5     7 ar  
    12     5    25 1   
    13     6    11 1   
    14     6    16 2   
    15     7     9 ar  
    16     7    11 1   
    17     8    16 1   
    18     8    26 1   
    19     8    27 1   
    20     9    10 ar  
    21     9    28 1   
    22    10    29 1   
    23    11    12 1   
    24    11    17 1   
    25    13    14 1   
    26    13    30 1   
    27    13    31 1   
    28    14    15 1   
    29    14    32 1   
    30    14    33 1   
    31    15    34 1   
    32    15    35 1   
    33    17    18 ar  
    34    17    22 ar  
    35    18    19 ar  
    36    18    36 1   
    37    19    20 ar  
    38    19    37 1   
    39    20    21 ar  
    40    20    38 1   
    41    21    22 ar  
    42    21    39 1   
    43    22    40 1   
@<TRIPOS>SUBSTRUCTURE
     1 454         1 TEMP              0 ****  ****    0 ROOT
