@<TRIPOS>MOLECULE
455
   57    60     1     0     0
SMALL
No Charge or Current Charge


@<TRIPOS>ATOM
      1 S1          -3.2910     5.2270     0.3320 s6         1 455       1.268200
      2 C2          -1.0250     2.0380     0.0440 c5         1 455      -0.159700
      3 C3          -2.3560     1.4650    -0.5870 c5         1 455      -0.151700
      4 N4          -2.6340     3.6780     0.2070 n3         1 455      -0.777500
      5 C5           0.2290     1.6000    -0.7520 c          1 455       0.629100
      6 N6           6.2910    -1.4100    -0.4720 n          1 455      -0.200200
      7 C7          -3.0430     0.4630     0.3810 c          1 455       0.620100
      8 C8          -3.2640     2.7190    -0.7300 c5         1 455       0.213800
      9 C9          -1.2020     3.5660    -0.1080 c5         1 455       0.211800
     10 C10          6.6360    -2.6590     0.1120 c          1 455       0.556200
     11 C11          4.9430    -0.8820    -0.3710 ca         1 455       0.021600
     12 N12          1.1130     0.9650     0.1120 ns         1 455      -0.138000
     13 C13          4.2750    -0.8620     0.8720 ca         1 455      -0.094000
     14 N14         -3.2050    -0.7530    -0.2760 ns         1 455      -0.139000
     15 C15          2.3930     0.3720    -0.0910 ca         1 455      -0.046000
     16 C16          3.0160    -0.2580     1.0040 ca         1 455       0.117000
     17 O17         -2.4460     6.0330     1.2040 o          1 455      -0.530000
     18 O18         -3.7990     5.6760    -0.9600 o          1 455      -0.530000
     19 C19          7.2240    -0.7330    -1.2760 cc         1 455      -0.024400
     20 O20          0.4090     1.7630    -1.9520 o          1 455      -0.563100
     21 O21         -3.3770     0.6880     1.5390 o          1 455      -0.574100
     22 C22          8.0030    -3.1270    -0.1560 cc         1 455      -0.319200
     23 O23          5.8570    -3.3320     0.7750 o          1 455      -0.541000
     24 C24          4.3420    -0.2000    -1.4540 ca         1 455      -0.089000
     25 C25          3.0770     0.4030    -1.3250 ca         1 455      -0.107000
     26 C26          8.4930    -1.2160    -1.5260 cd         1 455      -0.298000
     27 C27          8.9100    -2.4560    -0.9430 cd         1 455      -0.084000
     28 C28         -3.7590    -1.9970     0.1370 ca         1 455      -0.022000
     29 N29         -4.4860     4.6830     1.2500 n8         1 455      -1.030100
     30 F30          2.4030    -0.2760     2.2100 f          1 455      -0.184000
     31 C31         -4.8240    -4.5240     0.8180 ca         1 455       0.096000
     32 Cl          -5.4870    -6.0980     1.2420 cl         1 455      -0.199000
     33 C33         -3.7510    -3.0540    -0.7950 ca         1 455      -0.140000
     34 C34         -4.3090    -2.2210     1.4200 ca         1 455      -0.140000
     35 C35         -4.8380    -3.4810     1.7560 ca         1 455      -0.075000
     36 C36         -4.2810    -4.3120    -0.4580 ca         1 455      -0.075000
     37 H291        -4.2750     5.1830     2.1080 hn         1 455       0.475500
     38 H292        -4.0730     3.7640     1.3990 hn         1 455       0.475500
     39 H2          -0.9310     1.7790     1.1060 hc         1 455       0.083700
     40 H3          -2.1950     1.0050    -1.5700 hc         1 455       0.106700
     41 H91C        -0.5650     4.1210     0.5960 h1         1 455       0.069700
     42 H92C        -0.9810     3.9210    -1.1250 h1         1 455       0.069700
     43 H81C        -3.2350     3.1000    -1.7610 h1         1 455       0.063200
     44 H82C        -4.3160     2.5100    -0.4900 h1         1 455       0.063200
     45 H12          0.7890     0.9090     1.0690 hn         1 455       0.163000
     46 H19          6.8600     0.2190    -1.6470 h4         1 455       0.204000
     47 H14         -2.8650    -0.7580    -1.2280 hn         1 455       0.155000
     48 H22          8.2540    -4.0760     0.3040 ha         1 455       0.210000
     49 H13          4.7340    -1.3000     1.7540 ha         1 455       0.149000
     50 H24          4.8320    -0.1660    -2.4240 ha         1 455       0.133000
     51 H25          2.6530     0.8920    -2.1960 ha         1 455       0.156000
     52 H26          9.1790    -0.6460    -2.1500 ha         1 455       0.202000
     53 H27          9.9090    -2.8550    -1.1170 ha         1 455       0.187000
     54 H33         -3.3330    -2.9020    -1.7880 ha         1 455       0.133000
     55 H34         -4.3380    -1.4380     2.1700 ha         1 455       0.133000
     56 H35         -5.2600    -3.6480     2.7440 ha         1 455       0.132000
     57 H36         -4.2700    -5.1210    -1.1840 ha         1 455       0.132000
@<TRIPOS>BOND
     1     1     4 1   
     2     1    17 2   
     3     1    18 2   
     4     1    29 1   
     5     2     3 1   
     6     2     5 1   
     7     2     9 1   
     8     2    39 1   
     9     3     7 1   
    10     3     8 1   
    11     3    40 1   
    12     4     8 1   
    13     4     9 1   
    14     5    12 1   
    15     5    20 2   
    16     6    10 1   
    17     6    11 1   
    18     6    19 1   
    19     7    14 1   
    20     7    21 2   
    21     8    43 1   
    22     8    44 1   
    23     9    41 1   
    24     9    42 1   
    25    10    22 1   
    26    10    23 2   
    27    11    13 ar  
    28    11    24 ar  
    29    12    15 1   
    30    12    45 1   
    31    13    16 ar  
    32    13    49 1   
    33    14    28 1   
    34    14    47 1   
    35    15    16 ar  
    36    15    25 ar  
    37    16    30 1   
    38    19    26 2   
    39    19    46 1   
    40    22    27 2   
    41    22    48 1   
    42    24    25 ar  
    43    24    50 1   
    44    25    51 1   
    45    26    27 1   
    46    26    52 1   
    47    27    53 1   
    48    28    33 ar  
    49    28    34 ar  
    50    29    37 1   
    51    29    38 1   
    52    31    32 1   
    53    31    35 ar  
    54    31    36 ar  
    55    33    36 ar  
    56    33    54 1   
    57    34    35 ar  
    58    34    55 1   
    59    35    56 1   
    60    36    57 1   
@<TRIPOS>SUBSTRUCTURE
     1 455         1 TEMP              0 ****  ****    0 ROOT
