@<TRIPOS>MOLECULE
455
   57    60     1     0     0
SMALL
bcc


@<TRIPOS>ATOM
      1 S1          -2.8030     4.7770     0.1430 s6         1 455       1.409800
      2 C2          -0.9910     1.4470     0.0700 c5         1 455      -0.159700
      3 C3          -2.3150     0.9780    -0.5020 c5         1 455      -0.151700
      4 N4          -2.3540     3.3010    -0.4240 n3         1 455      -0.777500
      5 C5           0.1990     0.6490    -0.4180 c          1 455       0.696100
      6 N6           6.6240    -0.8710    -0.3100 n          1 455      -0.267200
      7 C7          -2.8010    -0.3280     0.0920 c          1 455       0.687100
      8 C8          -3.2400     2.1580    -0.1960 c5         1 455       0.213800
      9 C9          -0.9360     2.9180    -0.3600 c5         1 455       0.211800
     10 C10          7.1660    -1.7080     0.6700 c          1 455       0.698700
     11 C11          5.2690    -0.4550    -0.1590 ca         1 455       0.021600
     12 N12          1.3280     0.8900     0.2990 ns         1 455      -0.464100
     13 C13          4.9450     0.5040     0.7900 ca         1 455      -0.112000
     14 N14         -3.8760    -0.8400    -0.5560 ns         1 455      -0.465100
     15 C15          2.6130     0.3960     0.0880 ca         1 455       0.046600
     16 C16          3.6360     0.9040     0.8930 ca         1 455       0.081900
     17 O17         -1.8330     5.7220    -0.3700 o          1 455      -0.600800
     18 O18         -4.2160     4.9070    -0.1500 o          1 455      -0.600800
     19 C19          7.3140    -0.4560    -1.4090 cc         1 455       0.025600
     20 O20          0.1390    -0.1020    -1.3700 o          1 455      -0.563100
     21 O21         -2.2720    -0.8360     1.0620 o          1 455      -0.574100
     22 C22          8.5310    -2.0930     0.4310 cc         1 455      -0.269200
     23 O23          6.4870    -2.0570     1.6280 o          1 455      -0.616500
     24 C24          4.2850    -0.9860    -0.9720 ca         1 455      -0.107000
     25 C25          2.9670    -0.5650    -0.8560 ca         1 455      -0.125000
     26 C26          8.5980    -0.8300    -1.6230 cd         1 455      -0.248000
     27 C27          9.2130    -1.6730    -0.6660 cd         1 455      -0.034000
     28 C28         -4.6120    -1.9950    -0.2750 ca         1 455       0.070600
     29 N29         -2.6730     4.8400     1.7820 n8         1 455      -0.919700
     30 F30          3.3120     1.8360     1.8040 f          1 455      -0.148900
     31 C31         -6.1950    -4.2480     0.1280 ca         1 455       0.004400
     32 CL          -7.1780    -5.6530     0.3840 cl         1 455      -0.107400
     33 C33         -5.7070    -2.2580    -1.1010 ca         1 455      -0.158000
     34 C34         -4.3210    -2.8820     0.7610 ca         1 455      -0.158000
     35 C35         -5.1150    -4.0040     0.9570 ca         1 455      -0.093000
     36 C36         -6.4970    -3.3760    -0.9070 ca         1 455      -0.093000
     37 H291        -1.7270     4.7630     2.1370 hn         1 455       0.420300
     38 H292        -3.3130     4.2340     2.2810 hn         1 455       0.420300
     39 H2          -1.0320     1.4020     1.1620 hc         1 455       0.083700
     40 H3          -2.2340     0.8700    -1.5890 hc         1 455       0.106700
     41 H91C        -0.3670     3.5200     0.3500 h1         1 455       0.069700
     42 H92C        -0.4770     3.0410    -1.3430 h1         1 455       0.069700
     43 H81C        -4.1020     2.1940    -0.8590 h1         1 455       0.063200
     44 H82C        -3.5980     2.1050     0.8390 h1         1 455       0.063200
     45 H12          1.2260     1.5180     1.0830 hn         1 455       0.329500
     46 H19          6.7740     0.1900    -2.0860 h4         1 455       0.154000
     47 H14         -4.1920    -0.3270    -1.3660 hn         1 455       0.321500
     48 H22          8.9940    -2.7390     1.1640 ha         1 455       0.160000
     49 H13          5.6960     0.9440     1.4320 ha         1 455       0.167000
     50 H24          4.5350    -1.7380    -1.7080 ha         1 455       0.151000
     51 H25          2.2240    -0.9970    -1.5040 ha         1 455       0.174000
     52 H26          9.1240    -0.4820    -2.4980 ha         1 455       0.152000
     53 H27         10.2390    -1.9850    -0.8120 ha         1 455       0.137000
     54 H33         -5.9490    -1.5770    -1.9090 ha         1 455       0.151000
     55 H34         -3.4860    -2.7200     1.4210 ha         1 455       0.151000
     56 H35         -4.8770    -4.6850     1.7620 ha         1 455       0.150000
     57 H36         -7.3400    -3.5570    -1.5600 ha         1 455       0.150000
@<TRIPOS>BOND
     1     1     4 1   
     2     1    17 2   
     3     1    18 2   
     4     1    29 1   
     5     2     3 1   
     6     2     5 1   
     7     2     9 1   
     8     2    39 1   
     9     3     7 1   
    10     3     8 1   
    11     3    40 1   
    12     4     8 1   
    13     4     9 1   
    14     5    12 1   
    15     5    20 2   
    16     6    10 1   
    17     6    11 1   
    18     6    19 1   
    19     7    14 1   
    20     7    21 2   
    21     8    43 1   
    22     8    44 1   
    23     9    41 1   
    24     9    42 1   
    25    10    22 1   
    26    10    23 2   
    27    11    13 ar  
    28    11    24 ar  
    29    12    15 1   
    30    12    45 1   
    31    13    16 ar  
    32    13    49 1   
    33    14    28 1   
    34    14    47 1   
    35    15    16 ar  
    36    15    25 ar  
    37    16    30 1   
    38    19    26 2   
    39    19    46 1   
    40    22    27 2   
    41    22    48 1   
    42    24    25 ar  
    43    24    50 1   
    44    25    51 1   
    45    26    27 1   
    46    26    52 1   
    47    27    53 1   
    48    28    33 ar  
    49    28    34 ar  
    50    29    37 1   
    51    29    38 1   
    52    31    32 1   
    53    31    35 ar  
    54    31    36 ar  
    55    33    36 ar  
    56    33    54 1   
    57    34    35 ar  
    58    34    55 1   
    59    35    56 1   
    60    36    57 1   
@<TRIPOS>SUBSTRUCTURE
     1 455         1 TEMP              0 ****  ****    0 ROOT
