@<TRIPOS>MOLECULE
456
   36    38     1     0     0
SMALL
bcc


@<TRIPOS>ATOM
      1 C1           6.9840    -0.1140    -0.5100 c3         1 456      -0.173100
      2 C2           5.5770     0.3080    -0.2090 c          1 456       0.673100
      3 C7           1.1950    -1.0810     0.0830 cc         1 456       0.393600
      4 C8           1.0520     0.2430     0.3170 cd         1 456      -0.226700
      5 C10         -0.2400     0.9550     0.5440 c6         1 456       0.312100
      6 C12         -1.1140    -1.3330     0.8540 c6         1 456       0.224800
      7 C13          0.0230    -2.0020     0.0960 c6         1 456      -0.117700
      8 C17         -5.0820     1.3760    -0.4120 ca         1 456       0.207900
      9 C18         -4.7810     0.0160    -0.2740 ca         1 456       0.588300
     10 O3           5.2460     1.4540     0.0330 o          1 456      -0.571100
     11 N4           4.6520    -0.6920    -0.2570 ns         1 456      -0.540400
     12 C5           3.3030    -0.5200    -0.0720 cd         1 456       0.546300
     13 N6           2.4760    -1.5100    -0.1410 nc         1 456      -0.703000
     14 S9           2.5940     1.0260     0.2690 ss         1 456      -0.077300
     15 N11         -1.3370     0.0240     0.3730 nh         1 456      -0.779300
     16 C14         -2.5930     0.4920     0.1380 ca         1 456       0.625900
     17 C15         -2.8950     1.8640     0.0320 ca         1 456       0.170900
     18 N16         -4.1240     2.2670    -0.2470 nb         1 456      -0.583000
     19 N19         -3.5700    -0.4060    -0.0060 nb         1 456      -0.818000
     20 C21         -5.4760    -2.2400    -0.2660 c3         1 456       0.134700
     21 H1           7.1700     0.0100    -1.5780 hc         1 456       0.070700
     22 H2           7.6860     0.5190     0.0280 hc         1 456       0.070700
     23 H3           7.1720    -1.1560    -0.2570 hc         1 456       0.070700
     24 H4          -0.2590     1.4260     1.5360 h1         1 456       0.055200
     25 H5          -0.3310     1.7610    -0.1880 h1         1 456       0.055200
     26 H6          -2.0320    -1.8990     0.7410 h1         1 456       0.061200
     27 H7          -0.8710    -1.3030     1.9230 h1         1 456       0.061200
     28 H8          -0.2890    -2.2470    -0.9230 hc         1 456       0.070700
     29 H9           0.2830    -2.9420     0.5860 hc         1 456       0.070700
     30 H10         -6.0850     1.7190    -0.6370 h4         1 456       0.043100
     31 H11          4.9460    -1.6380    -0.4520 hn         1 456       0.341500
     32 H12         -2.1550     2.6360     0.1830 h4         1 456       0.029100
     33 H13         -5.1140    -2.4640     0.7390 h1         1 456       0.046033
     34 H14         -6.4120    -2.7660    -0.4370 h1         1 456       0.046033
     35 H15         -4.7330    -2.5790    -0.9880 h1         1 456       0.046033
     36 O20         -5.7730    -0.8590    -0.4220 os         1 456      -0.429100
@<TRIPOS>BOND
     1     1     2 1   
     2     1    21 1   
     3     1    22 1   
     4     1    23 1   
     5     2    10 2   
     6     2    11 1   
     7     3     4 2   
     8     3     7 1   
     9     3    13 1   
    10     4     5 1   
    11     4    14 1   
    12     5    15 1   
    13     5    24 1   
    14     5    25 1   
    15     6     7 1   
    16     6    15 1   
    17     6    26 1   
    18     6    27 1   
    19     7    28 1   
    20     7    29 1   
    21     8     9 ar  
    22     8    18 ar  
    23     8    30 1   
    24     9    19 ar  
    25     9    36 1   
    26    11    12 1   
    27    11    31 1   
    28    12    13 2   
    29    12    14 1   
    30    15    16 1   
    31    16    17 ar  
    32    16    19 ar  
    33    17    18 ar  
    34    17    32 1   
    35    20    33 1   
    36    20    34 1   
    37    20    35 1   
    38    20    36 1   
@<TRIPOS>SUBSTRUCTURE
     1 456         1 TEMP              0 ****  ****    0 ROOT
