@<TRIPOS>MOLECULE
456
   36    38     1     0     0
SMALL
No Charge or Current Charge


@<TRIPOS>ATOM
      1 C1           7.1040    -0.3290    -0.5210 c3         1 456      -0.173100
      2 C2           5.7320     0.3000    -0.3180 c          1 456       0.606100
      3 C7           1.2560    -0.9640     0.1360 cc         1 456       0.328300
      4 C8           1.0810     0.3860     0.2420 cd         1 456      -0.306300
      5 C10         -0.2510     1.0590     0.4440 c6         1 456       0.312100
      6 C12         -1.0670    -1.2540     0.9610 c6         1 456       0.224800
      7 C13          0.1050    -1.9190     0.2120 c6         1 456      -0.117700
      8 C17         -5.2620     1.3520    -0.1700 ca         1 456       0.207900
      9 C18         -4.8850    -0.0240    -0.2440 ca         1 456       0.588300
     10 O3           5.5860     1.5080    -0.2230 o          1 456      -0.571100
     11 N4           4.7010    -0.6010    -0.2520 ns         1 456      -0.473400
     12 C5           3.3660    -0.3700    -0.0780 cd         1 456       0.546300
     13 N6           2.5410    -1.4030    -0.0450 nc         1 456      -0.703000
     14 S9           2.6120     1.2250     0.1140 ss         1 456       0.067600
     15 N11         -1.3740     0.0870     0.3720 nh         1 456      -0.779300
     16 C14         -2.7040     0.5450     0.2010 ca         1 456       0.625900
     17 C15         -3.0900     1.9280     0.2700 ca         1 456       0.170900
     18 N16         -4.3720     2.3520     0.0880 nb         1 456      -0.583000
     19 N19         -3.6020    -0.4320    -0.0590 nb         1 456      -0.818000
     20 C21         -5.5430    -2.3660    -0.6000 c3         1 456       0.157900
     21 H1           7.0800    -0.9560    -1.4200 hc         1 456       0.070700
     22 H2           7.9060     0.4160    -0.5700 hc         1 456       0.070700
     23 H3           7.2820    -1.0630     0.2720 hc         1 456       0.070700
     24 H4          -0.2590     1.5700     1.4180 h1         1 456       0.055200
     25 H5          -0.3700     1.8300    -0.3320 h1         1 456       0.055200
     26 H6          -1.9270    -1.9380     0.9310 h1         1 456       0.061200
     27 H7          -0.7970    -1.1380     2.0220 h1         1 456       0.061200
     28 H8          -0.2190    -2.1980    -0.7990 hc         1 456       0.070700
     29 H9           0.3920    -2.8470     0.7220 hc         1 456       0.070700
     30 H10         -6.2980     1.6490    -0.3230 h4         1 456       0.043100
     31 H11          4.9780    -1.5660    -0.3460 hn         1 456       0.341500
     32 H12         -2.3610     2.7080     0.4800 h4         1 456       0.029100
     33 H13         -5.1230    -2.7340     0.3450 h1         1 456       0.046033
     34 H14         -6.4470    -2.9490    -0.8190 h1         1 456       0.046033
     35 H15         -4.8160    -2.5550    -1.4010 h1         1 456       0.046033
     36 O20         -5.8610    -0.9630    -0.5120 os         1 456      -0.452300
@<TRIPOS>BOND
     1     1     2 1   
     2     1    21 1   
     3     1    22 1   
     4     1    23 1   
     5     2    10 2   
     6     2    11 1   
     7     3     4 2   
     8     3     7 1   
     9     3    13 1   
    10     4     5 1   
    11     4    14 1   
    12     5    15 1   
    13     5    24 1   
    14     5    25 1   
    15     6     7 1   
    16     6    15 1   
    17     6    26 1   
    18     6    27 1   
    19     7    28 1   
    20     7    29 1   
    21     8     9 ar  
    22     8    18 ar  
    23     8    30 1   
    24     9    19 ar  
    25     9    36 1   
    26    11    12 1   
    27    11    31 1   
    28    12    13 2   
    29    12    14 1   
    30    15    16 1   
    31    16    17 ar  
    32    16    19 ar  
    33    17    18 ar  
    34    17    32 1   
    35    20    33 1   
    36    20    34 1   
    37    20    35 1   
    38    20    36 1   
@<TRIPOS>SUBSTRUCTURE
     1 456         1 TEMP              0 ****  ****    0 ROOT
