@<TRIPOS>MOLECULE
458
   39    41     1     0     0
SMALL
No Charge or Current Charge


@<TRIPOS>ATOM
      1 CAK         -2.1110    -0.0210    -1.4600 c6         1 458      -0.071400
      2 CAJ         -0.6220     0.3220    -1.1960 c6         1 458      -0.050500
      3 CAO         -0.5490     1.6390    -0.4180 c2         1 458      -0.112400
      4 CAR          0.6270     2.5430    -0.7430 c3         1 458      -0.048900
      5 CAQ         -1.5200     1.9780     0.4510 c2         1 458      -0.211200
      6 CAP         -2.7780     1.1410     0.7030 c6         1 458      -0.019200
      7 CAL         -2.8330    -0.2130    -0.0930 c6         1 458      -0.083000
      8 CAT         -4.3150    -0.6390    -0.3430 c3         1 458       0.170600
      9 OAU         -5.0440    -0.8430     0.8750 oh         1 458      -0.661000
     10 CAM         -2.0910    -1.3510     0.6840 c6         1 458       0.170600
     11 OAH         -0.6850    -1.0590     0.8400 os         1 458      -0.443000
     12 CAI          0.0180    -0.8660    -0.4100 c6         1 458       0.229600
     13 CAD          1.5200    -0.6860    -0.1410 ca         1 458      -0.113300
     14 CAC          2.4460    -1.0400    -1.1430 ca         1 458      -0.053500
     15 CAB          3.8250    -0.8760    -0.9240 ca         1 458      -0.181500
     16 CAA          4.2890    -0.3580     0.2930 ca         1 458       0.138100
     17 OAG          5.6270    -0.2020     0.4930 oh         1 458      -0.535100
     18 CAF          3.3760    -0.0010     1.2960 ca         1 458      -0.181500
     19 CAE          1.9950    -0.1640     1.0820 ca         1 458      -0.053500
     20 HAK1        -2.1840    -0.9340    -2.0680 hc         1 458       0.045700
     21 HAK2        -2.5870     0.7810    -2.0410 hc         1 458       0.045700
     22 HAJ         -0.1160     0.4330    -2.1660 hc         1 458       0.060700
     23 HAR1         0.5990     3.4690    -0.1570 hc         1 458       0.040367
     24 HAR2         1.5860     2.0560    -0.5380 hc         1 458       0.040367
     25 HAR3         0.6210     2.8270    -1.8020 hc         1 458       0.040367
     26 HAQ         -1.4720     2.9260     0.9890 ha         1 458       0.170000
     27 HAP1        -2.8850     0.9510     1.7800 hc         1 458       0.054700
     28 HAP2        -3.6420     1.7610     0.4260 hc         1 458       0.054700
     29 HAT1        -4.8070     0.1360    -0.9450 h1         1 458       0.019700
     30 HAT2        -4.3190    -1.5630    -0.9370 h1         1 458       0.019700
     31 HAU         -5.9630    -1.0810     0.6210 ho         1 458       0.444000
     32 HAM1        -2.5330    -1.4810     1.6820 h1         1 458       0.050700
     33 HAM2        -2.1970    -2.3050     0.1470 h1         1 458       0.050700
     34 HAI         -0.1030    -1.7830    -1.0060 h1         1 458       0.033700
     35 HAC          2.0960    -1.4400    -2.0920 ha         1 458       0.121000
     36 HAB          4.5330    -1.1510    -1.7020 ha         1 458       0.119500
     37 HAG          5.7640     0.1680     1.3910 ho         1 458       0.464000
     38 HAF          3.7260     0.4060     2.2420 ha         1 458       0.119500
     39 HAE          1.2970     0.1280     1.8640 ha         1 458       0.121000
@<TRIPOS>BOND
     1     1     2 1   
     2     1     7 1   
     3     1    20 1   
     4     1    21 1   
     5     2     3 1   
     6     2    12 1   
     7     2    22 1   
     8     3     4 1   
     9     3     5 2   
    10     4    23 1   
    11     4    24 1   
    12     4    25 1   
    13     5     6 1   
    14     5    26 1   
    15     6     7 1   
    16     6    27 1   
    17     6    28 1   
    18     7     8 1   
    19     7    10 1   
    20     8     9 1   
    21     8    29 1   
    22     8    30 1   
    23     9    31 1   
    24    10    11 1   
    25    10    32 1   
    26    10    33 1   
    27    11    12 1   
    28    12    13 1   
    29    12    34 1   
    30    13    14 ar  
    31    13    19 ar  
    32    14    15 ar  
    33    14    35 1   
    34    15    16 ar  
    35    15    36 1   
    36    16    17 1   
    37    16    18 ar  
    38    17    37 1   
    39    18    19 ar  
    40    18    38 1   
    41    19    39 1   
@<TRIPOS>SUBSTRUCTURE
     1 458         1 TEMP              0 ****  ****    0 ROOT
