@<TRIPOS>MOLECULE
458
   39    41     1     0     0
SMALL
bcc


@<TRIPOS>ATOM
      1 CAK         -2.1040    -0.0300    -1.4510 c6         1 458      -0.071400
      2 CAJ         -0.6280     0.2700    -1.2060 c6         1 458      -0.050500
      3 CAO         -0.4940     1.5650    -0.4490 c2         1 458      -0.112400
      4 CAR          0.6650     2.4580    -0.7700 c3         1 458      -0.048900
      5 CAQ         -1.4320     1.8940     0.4380 c2         1 458      -0.161200
      6 CAP         -2.6710     1.0980     0.7140 c6         1 458      -0.019200
      7 CAL         -2.7920    -0.2050    -0.0960 c6         1 458      -0.083000
      8 CAT         -4.2500    -0.5730    -0.3280 c3         1 458       0.147400
      9 OAU         -4.9110    -0.7230     0.9080 oh         1 458      -0.598800
     10 CAM         -2.0830    -1.3610     0.6130 c6         1 458       0.147400
     11 OAH         -0.7040    -1.1290     0.7790 os         1 458      -0.396600
     12 CAI         -0.0170    -0.9190    -0.4270 c6         1 458       0.206400
     13 CAD          1.4420    -0.7240    -0.1200 ca         1 458      -0.113300
     14 CAC          2.3920    -1.0100    -1.0970 ca         1 458      -0.071500
     15 CAB          3.7400    -0.7760    -0.8880 ca         1 458      -0.199500
     16 CAA          4.1700    -0.2480     0.3270 ca         1 458       0.138100
     17 OAG          5.4920    -0.0350     0.4910 oh         1 458      -0.496100
     18 CAF          3.2330     0.0320     1.3170 ca         1 458      -0.199500
     19 CAE          1.8840    -0.2060     1.0910 ca         1 458      -0.071500
     20 HAK1        -2.2110    -0.9440    -2.0460 hc         1 458       0.045700
     21 HAK2        -2.5660     0.7800    -2.0220 hc         1 458       0.045700
     22 HAJ         -0.1000     0.3400    -2.1630 hc         1 458       0.060700
     23 HAR1         0.6850     3.3360    -0.1240 hc         1 458       0.040367
     24 HAR2         1.6200     1.9410    -0.6690 hc         1 458       0.040367
     25 HAR3         0.6060     2.8040    -1.8060 hc         1 458       0.040367
     26 HAQ         -1.3420     2.8320     0.9810 ha         1 458       0.120000
     27 HAP1        -2.7430     0.8850     1.7850 hc         1 458       0.054700
     28 HAP2        -3.5310     1.7440     0.5010 hc         1 458       0.054700
     29 HAT1        -4.7150     0.2140    -0.9380 h1         1 458       0.019700
     30 HAT2        -4.2940    -1.4990    -0.9190 h1         1 458       0.019700
     31 HAU         -5.8270    -0.9550     0.7330 ho         1 458       0.405000
     32 HAM1        -2.4890    -1.5180     1.6130 h1         1 458       0.050700
     33 HAM2        -2.2480    -2.2870     0.0370 h1         1 458       0.050700
     34 HAI         -0.1200    -1.8060    -1.0760 h1         1 458       0.033700
     35 HAC          2.0730    -1.4270    -2.0460 ha         1 458       0.139000
     36 HAB          4.4630    -1.0060    -1.6620 ha         1 458       0.137500
     37 HAG          5.6670     0.3260     1.3670 ho         1 458       0.425000
     38 HAF          3.5540     0.4380     2.2700 ha         1 458       0.137500
     39 HAE          1.1760     0.0310     1.8730 ha         1 458       0.139000
@<TRIPOS>BOND
     1     1     2 1   
     2     1     7 1   
     3     1    20 1   
     4     1    21 1   
     5     2     3 1   
     6     2    12 1   
     7     2    22 1   
     8     3     4 1   
     9     3     5 2   
    10     4    23 1   
    11     4    24 1   
    12     4    25 1   
    13     5     6 1   
    14     5    26 1   
    15     6     7 1   
    16     6    27 1   
    17     6    28 1   
    18     7     8 1   
    19     7    10 1   
    20     8     9 1   
    21     8    29 1   
    22     8    30 1   
    23     9    31 1   
    24    10    11 1   
    25    10    32 1   
    26    10    33 1   
    27    11    12 1   
    28    12    13 1   
    29    12    34 1   
    30    13    14 ar  
    31    13    19 ar  
    32    14    15 ar  
    33    14    35 1   
    34    15    16 ar  
    35    15    36 1   
    36    16    17 1   
    37    16    18 ar  
    38    17    37 1   
    39    18    19 ar  
    40    18    38 1   
    41    19    39 1   
@<TRIPOS>SUBSTRUCTURE
     1 458         1 TEMP              0 ****  ****    0 ROOT
