@<TRIPOS>MOLECULE
459
   44    46     1     0     0
SMALL
No Charge or Current Charge


@<TRIPOS>ATOM
      1 CAT          2.1900    -1.8250     1.7540 c3         1 459      -0.091100
      2 CAK          2.0010    -0.3920     1.1570 c6         1 459      -0.060700
      3 CAJ          0.4970     0.0260     1.1070 c6         1 459      -0.075700
      4 CAN          0.3710     1.5670     0.8230 c6         1 459      -0.049700
      5 CAQ          0.8320     2.4360     2.0310 c3         1 459      -0.088100
      6 CAP          1.1110     1.9830    -0.4840 c6         1 459      -0.067400
      7 CAO          2.5320     1.3600    -0.6050 c6         1 459      -0.055400
      8 CAL          2.6100    -0.1800    -0.2770 c6         1 459      -0.073000
      9 CAR          4.1100    -0.6350    -0.3180 c3         1 459       0.168600
     10 OAS          4.7320    -0.4110    -1.5920 oh         1 459      -0.663000
     11 CAM          1.7840    -1.0350    -1.3030 c6         1 459       0.173600
     12 OAH          0.3690    -0.7320    -1.2550 os         1 459      -0.451000
     13 CAI         -0.2410    -0.8700     0.0490 c6         1 459       0.226600
     14 CAD         -1.7490    -0.5780    -0.0360 ca         1 459      -0.114300
     15 CAC         -2.3000     0.2110    -1.0700 ca         1 459      -0.058500
     16 CAB         -3.6830     0.4660    -1.1090 ca         1 459      -0.179000
     17 CAA         -4.5240    -0.0640    -0.1190 ca         1 459       0.138100
     18 OAG         -5.8630     0.1790    -0.1520 oh         1 459      -0.535100
     19 CAF         -3.9850    -0.8480     0.9110 ca         1 459      -0.179000
     20 CAE         -2.6040    -1.1040     0.9540 ca         1 459      -0.058500
     21 HAT1         1.8380    -2.6180     1.0860 hc         1 459       0.034033
     22 HAT2         3.2440    -2.0280     1.9790 hc         1 459       0.034033
     23 HAT3         1.6450    -1.9270     2.7000 hc         1 459       0.034033
     24 HAK          2.5290     0.2620     1.8630 hc         1 459       0.053700
     25 HAJ          0.0430    -0.1750     2.0870 hc         1 459       0.052700
     26 HAN         -0.6920     1.8130     0.7010 hc         1 459       0.055700
     27 HAQ1         0.5730     3.4900     1.8730 hc         1 459       0.031033
     28 HAQ2         0.3400     2.1180     2.9590 hc         1 459       0.031033
     29 HAQ3         1.9140     2.3910     2.1930 hc         1 459       0.031033
     30 HAP1         0.5100     1.7140    -1.3610 hc         1 459       0.044200
     31 HAP2         1.1900     3.0770    -0.5340 hc         1 459       0.044200
     32 HAO1         2.9100     1.5510    -1.6180 hc         1 459       0.044200
     33 HAO2         3.2090     1.9040     0.0690 hc         1 459       0.044200
     34 HAR1         4.6600    -0.0940     0.4640 h1         1 459       0.020200
     35 HAR2         4.1660    -1.7040    -0.0770 h1         1 459       0.020200
     36 HAS          5.6690    -0.6950    -1.5070 ho         1 459       0.443000
     37 HAM1         2.1430    -0.8410    -2.3230 h1         1 459       0.049700
     38 HAM2         1.9230    -2.1080    -1.1090 h1         1 459       0.049700
     39 HAI         -0.1430    -1.9230     0.3470 h1         1 459       0.036700
     40 HAC         -1.6620     0.6330    -1.8430 ha         1 459       0.119000
     41 HAB         -4.0910     1.0760    -1.9120 ha         1 459       0.119500
     42 HAG         -6.0580     0.7380    -0.9350 ho         1 459       0.463000
     43 HAF         -4.6370    -1.2570     1.6780 ha         1 459       0.119500
     44 HAE         -2.1960    -1.7120     1.7600 ha         1 459       0.119000
@<TRIPOS>BOND
     1     1     2 1   
     2     1    21 1   
     3     1    22 1   
     4     1    23 1   
     5     2     3 1   
     6     2     8 1   
     7     2    24 1   
     8     3     4 1   
     9     3    13 1   
    10     3    25 1   
    11     4     5 1   
    12     4     6 1   
    13     4    26 1   
    14     5    27 1   
    15     5    28 1   
    16     5    29 1   
    17     6     7 1   
    18     6    30 1   
    19     6    31 1   
    20     7     8 1   
    21     7    32 1   
    22     7    33 1   
    23     8     9 1   
    24     8    11 1   
    25     9    10 1   
    26     9    34 1   
    27     9    35 1   
    28    10    36 1   
    29    11    12 1   
    30    11    37 1   
    31    11    38 1   
    32    12    13 1   
    33    13    14 1   
    34    13    39 1   
    35    14    15 ar  
    36    14    20 ar  
    37    15    16 ar  
    38    15    40 1   
    39    16    17 ar  
    40    16    41 1   
    41    17    18 1   
    42    17    19 ar  
    43    18    42 1   
    44    19    20 ar  
    45    19    43 1   
    46    20    44 1   
@<TRIPOS>SUBSTRUCTURE
     1 459         1 TEMP              0 ****  ****    0 ROOT
