@<TRIPOS>MOLECULE
459
   44    46     1     0     0
SMALL
bcc


@<TRIPOS>ATOM
      1 CAT          2.2010    -1.7710     1.7390 c3         1 459      -0.091100
      2 CAK          1.9890    -0.3820     1.1360 c6         1 459      -0.060700
      3 CAJ          0.5070     0.0150     1.0770 c6         1 459      -0.075700
      4 CAN          0.3530     1.5220     0.8190 c6         1 459      -0.049700
      5 CAQ          0.7780     2.3430     2.0380 c3         1 459      -0.088100
      6 CAP          1.1070     1.9580    -0.4450 c6         1 459      -0.067400
      7 CAO          2.4980     1.3350    -0.5820 c6         1 459      -0.055400
      8 CAL          2.5700    -0.1720    -0.2770 c6         1 459      -0.073000
      9 CAR          4.0240    -0.6290    -0.3140 c3         1 459       0.145400
     10 OAS          4.5930    -0.3380    -1.5730 oh         1 459      -0.600800
     11 CAM          1.7590    -1.0060    -1.2730 c6         1 459       0.150400
     12 OAH          0.3730    -0.7430    -1.2390 os         1 459      -0.404600
     13 CAI         -0.2060    -0.8700     0.0370 c6         1 459       0.203400
     14 CAD         -1.6790    -0.5730    -0.0650 ca         1 459      -0.114300
     15 CAC         -2.2370     0.1490    -1.1140 ca         1 459      -0.076500
     16 CAB         -3.5980     0.4280    -1.1510 ca         1 459      -0.197000
     17 CAA         -4.4320    -0.0130    -0.1290 ca         1 459       0.138100
     18 OAG         -5.7610     0.2280    -0.1140 oh         1 459      -0.496100
     19 CAF         -3.8880    -0.7400     0.9270 ca         1 459      -0.197000
     20 CAE         -2.5300    -1.0130     0.9460 ca         1 459      -0.076500
     21 HAT1         1.8820    -2.5860     1.0890 hc         1 459       0.034033
     22 HAT2         3.2490    -1.9450     1.9830 hc         1 459       0.034033
     23 HAT3         1.6360    -1.8590     2.6700 hc         1 459       0.034033
     24 HAK          2.5000     0.3200     1.8050 hc         1 459       0.053700
     25 HAJ          0.0490    -0.2160     2.0460 hc         1 459       0.052700
     26 HAN         -0.7100     1.7310     0.6630 hc         1 459       0.055700
     27 HAQ1         0.5070     3.3910     1.9000 hc         1 459       0.031033
     28 HAQ2         0.2850     1.9910     2.9460 hc         1 459       0.031033
     29 HAQ3         1.8550     2.3130     2.2170 hc         1 459       0.031033
     30 HAP1         0.5110     1.7190    -1.3250 hc         1 459       0.044200
     31 HAP2         1.2100     3.0480    -0.4440 hc         1 459       0.044200
     32 HAO1         2.8760     1.5360    -1.5870 hc         1 459       0.044200
     33 HAO2         3.1900     1.8360     0.1050 hc         1 459       0.044200
     34 HAR1         4.5670    -0.1210     0.4970 h1         1 459       0.020200
     35 HAR2         4.0820    -1.7050    -0.1080 h1         1 459       0.020200
     36 HAS          5.4870    -0.6910    -1.5830 ho         1 459       0.404000
     37 HAM1         2.0820    -0.8020    -2.2950 h1         1 459       0.049700
     38 HAM2         1.9420    -2.0750    -1.0840 h1         1 459       0.049700
     39 HAI         -0.1090    -1.9150     0.3770 h1         1 459       0.036700
     40 HAC         -1.6180     0.5050    -1.9260 ha         1 459       0.137000
     41 HAB         -4.0050     0.9890    -1.9840 ha         1 459       0.137500
     42 HAG         -6.0180     0.7270    -0.8970 ho         1 459       0.424000
     43 HAF         -4.5280    -1.0970     1.7240 ha         1 459       0.137500
     44 HAE         -2.1270    -1.5850     1.7740 ha         1 459       0.137000
@<TRIPOS>BOND
     1     1     2 1   
     2     1    21 1   
     3     1    22 1   
     4     1    23 1   
     5     2     3 1   
     6     2     8 1   
     7     2    24 1   
     8     3     4 1   
     9     3    13 1   
    10     3    25 1   
    11     4     5 1   
    12     4     6 1   
    13     4    26 1   
    14     5    27 1   
    15     5    28 1   
    16     5    29 1   
    17     6     7 1   
    18     6    30 1   
    19     6    31 1   
    20     7     8 1   
    21     7    32 1   
    22     7    33 1   
    23     8     9 1   
    24     8    11 1   
    25     9    10 1   
    26     9    34 1   
    27     9    35 1   
    28    10    36 1   
    29    11    12 1   
    30    11    37 1   
    31    11    38 1   
    32    12    13 1   
    33    13    14 1   
    34    13    39 1   
    35    14    15 ar  
    36    14    20 ar  
    37    15    16 ar  
    38    15    40 1   
    39    16    17 ar  
    40    16    41 1   
    41    17    18 1   
    42    17    19 ar  
    43    18    42 1   
    44    19    20 ar  
    45    19    43 1   
    46    20    44 1   
@<TRIPOS>SUBSTRUCTURE
     1 459         1 TEMP              0 ****  ****    0 ROOT
