@<TRIPOS>MOLECULE
45B
   72    76     1     0     0
SMALL
No Charge or Current Charge


@<TRIPOS>ATOM
      1 Cl1          4.7830     3.7960     1.3740 cl         1 45B      -0.214000
      2 C13          6.3990     4.1420     0.7520 ca         1 45B       0.075000
      3 C12          6.9170     5.4390     0.9040 ca         1 45B      -0.083000
      4 C11          8.1990     5.7460     0.4220 ca         1 45B      -0.121000
      5 C10          8.9630     4.7520    -0.2110 ca         1 45B      -0.088000
      6 C9           8.4470     3.4530    -0.3650 ca         1 45B      -0.109000
      7 C8           7.1530     3.1340     0.1110 ca         1 45B      -0.017000
      8 N1           6.5740     1.8380    -0.0080 ns         1 45B      -0.153000
      9 C7           6.9640     0.6890    -0.6840 c          1 45B       0.630700
     10 O2           7.9720     0.6300    -1.3800 o          1 45B      -0.578100
     11 C6           6.0520    -0.5150    -0.5220 ca         1 45B      -0.186600
     12 C4           6.3560    -1.7130    -1.2060 ca         1 45B      -0.039500
     13 C3           5.5300    -2.8430    -1.0770 ca         1 45B      -0.162500
     14 C14          4.9010    -0.4860     0.3020 ca         1 45B      -0.039500
     15 C15          4.0810    -1.6220     0.4240 ca         1 45B      -0.162500
     16 C2           4.3820    -2.8030    -0.2750 ca         1 45B       0.335000
     17 N5           3.6000    -3.9570    -0.1690 nu         1 45B      -0.927900
     18 C1           2.2570    -4.2130     0.1170 ca         1 45B       0.408900
     19 N6           1.4110    -3.1710     0.1770 nb         1 45B      -0.309000
     20 C16          1.7990    -5.5350     0.2870 ca         1 45B      -0.062000
     21 F4           2.6380    -6.5980     0.2090 f          1 45B      -0.172000
     22 C17          0.4320    -5.7220     0.5470 ca         1 45B       0.147900
     23 N4          -0.4130    -4.6750     0.6180 nb         1 45B      -0.242000
     24 C5           0.1220    -3.4550     0.4170 ca         1 45B       0.421900
     25 N8          -0.7030    -2.3440     0.5050 nu         1 45B      -0.922900
     26 C           -2.0860    -2.1530     0.6030 ca         1 45B       0.320000
     27 C30         -2.5630    -0.9760     1.2030 ca         1 45B      -0.149500
     28 C29         -3.9450    -0.7360     1.3140 ca         1 45B      -0.063000
     29 C20         -4.8690    -1.6710     0.8100 ca         1 45B      -0.098300
     30 C19         -4.3930    -2.8420     0.1930 ca         1 45B      -0.063000
     31 C18         -3.0110    -3.0790     0.0870 ca         1 45B      -0.149500
     32 C21         -6.3730    -1.4230     0.9200 c3         1 45B      -0.102100
     33 C22         -6.9640    -0.9900    -0.4380 c          1 45B       0.606100
     34 O1          -7.2800    -1.8450    -1.2570 o          1 45B      -0.584100
     35 N           -7.0970     0.3860    -0.7640 n          1 45B      -0.421800
     36 C28         -7.7600     0.8490    -2.0010 c6         1 45B       0.078500
     37 C27         -9.1400     1.4720    -1.6740 c6         1 45B       0.079000
     38 N2          -9.1490     2.4550    -0.5370 n          1 45B      -0.418800
     39 C24         -8.1910     2.1710     0.5850 c6         1 45B       0.079000
     40 C23         -6.8530     1.5240     0.1490 c6         1 45B       0.078500
     41 C25        -10.3040     3.2460    -0.3240 c          1 45B       0.609100
     42 O3         -11.2530     3.1970    -1.0960 o          1 45B      -0.599100
     43 C26        -10.3290     4.2230     0.8570 c3         1 45B      -0.177100
     44 H12          6.3240     6.2060     1.3970 ha         1 45B       0.129000
     45 H11          8.6010     6.7500     0.5400 ha         1 45B       0.120000
     46 H10          9.9590     4.9870    -0.5800 ha         1 45B       0.120000
     47 H9           9.0720     2.7100    -0.8500 ha         1 45B       0.143000
     48 HN1          5.7050     1.7410     0.4990 hn         1 45B       0.164000
     49 H4           7.2360    -1.7760    -1.8450 ha         1 45B       0.126500
     50 H3           5.7850    -3.7520    -1.6160 ha         1 45B       0.134500
     51 H14          4.6250     0.4030     0.8650 ha         1 45B       0.126500
     52 H15          3.2210    -1.5790     1.0840 ha         1 45B       0.134500
     53 HN5          4.1020    -4.8100    -0.4160 hn         1 45B       0.515000
     54 H17          0.0090    -6.7130     0.6980 h4         1 45B       0.040100
     55 HN8         -0.1660    -1.4810     0.5760 hn         1 45B       0.510000
     56 H30         -1.8630    -0.2460     1.5970 ha         1 45B       0.130500
     57 H29         -4.2900     0.1770     1.7930 ha         1 45B       0.112000
     58 H19         -5.0930    -3.5690    -0.2120 ha         1 45B       0.112000
     59 H18         -2.6710    -3.9770    -0.4170 ha         1 45B       0.130500
     60 H21         -6.8600    -2.3580     1.2210 hc         1 45B       0.061700
     61 H21A        -6.5640    -0.6770     1.6960 hc         1 45B       0.061700
     62 H28         -7.1270     1.6080    -2.4840 h1         1 45B       0.061450
     63 H28A        -7.8850     0.0300    -2.7230 h1         1 45B       0.061450
     64 H27         -9.5240     1.9570    -2.5840 h1         1 45B       0.062450
     65 H27A        -9.8360     0.6580    -1.4280 h1         1 45B       0.062450
     66 H24         -7.9520     3.0990     1.1230 h1         1 45B       0.062450
     67 H24A        -8.6870     1.5000     1.3000 h1         1 45B       0.062450
     68 H23         -6.2600     1.2480     1.0280 h1         1 45B       0.061450
     69 H23A        -6.2610     2.2800    -0.3880 h1         1 45B       0.061450
     70 H26         -9.4250     4.8420     0.8330 hc         1 45B       0.060367
     71 H26A       -11.2350     4.8390     0.8730 hc         1 45B       0.060367
     72 H26B       -10.2180     3.6640     1.7920 hc         1 45B       0.060367
@<TRIPOS>BOND
     1     1     2 1   
     2     2     3 ar  
     3     2     7 ar  
     4     3     4 ar  
     5     3    44 1   
     6     4     5 ar  
     7     4    45 1   
     8     5     6 ar  
     9     5    46 1   
    10     6     7 ar  
    11     6    47 1   
    12     7     8 1   
    13     8     9 1   
    14     8    48 1   
    15     9    10 2   
    16     9    11 1   
    17    11    12 ar  
    18    11    14 ar  
    19    12    13 ar  
    20    12    49 1   
    21    13    16 ar  
    22    13    50 1   
    23    14    15 ar  
    24    14    51 1   
    25    15    16 ar  
    26    15    52 1   
    27    16    17 1   
    28    17    18 1   
    29    17    53 1   
    30    18    19 ar  
    31    18    20 ar  
    32    19    24 ar  
    33    20    21 1   
    34    20    22 ar  
    35    22    23 ar  
    36    22    54 1   
    37    23    24 ar  
    38    24    25 1   
    39    25    26 1   
    40    25    55 1   
    41    26    27 ar  
    42    26    31 ar  
    43    27    28 ar  
    44    27    56 1   
    45    28    29 ar  
    46    28    57 1   
    47    29    30 ar  
    48    29    32 1   
    49    30    31 ar  
    50    30    58 1   
    51    31    59 1   
    52    32    33 1   
    53    32    60 1   
    54    32    61 1   
    55    33    34 2   
    56    33    35 1   
    57    35    36 1   
    58    35    40 1   
    59    36    37 1   
    60    36    62 1   
    61    36    63 1   
    62    37    38 1   
    63    37    64 1   
    64    37    65 1   
    65    38    39 1   
    66    38    41 1   
    67    39    40 1   
    68    39    66 1   
    69    39    67 1   
    70    40    68 1   
    71    40    69 1   
    72    41    42 2   
    73    41    43 1   
    74    43    70 1   
    75    43    71 1   
    76    43    72 1   
@<TRIPOS>SUBSTRUCTURE
     1 45B         1 TEMP              0 ****  ****    0 ROOT
