@<TRIPOS>MOLECULE
45B
   72    76     1     0     0
SMALL
abcg2


@<TRIPOS>ATOM
      1 CL1          5.7520     3.7740     0.4990 cl         1 45B      -0.214000
      2 C13          7.4750     3.7190     0.3040 ca         1 45B       0.075000
      3 C12          8.1860     4.9070     0.3150 ca         1 45B      -0.083000
      4 C11          9.5610     4.8820     0.1390 ca         1 45B      -0.121000
      5 C10         10.2090     3.6670    -0.0280 ca         1 45B      -0.088000
      6 C9           9.4950     2.4780    -0.0220 ca         1 45B      -0.109000
      7 C8           8.1100     2.4850     0.1360 ca         1 45B      -0.017000
      8 N1           7.3450     1.3160     0.1640 ns         1 45B      -0.153000
      9 C7           7.5280     0.2090    -0.6070 c          1 45B       0.630700
     10 O2           8.5020     0.0400    -1.3180 o          1 45B      -0.578100
     11 C6           6.4420    -0.8030    -0.5160 ca         1 45B      -0.186600
     12 C4           6.7490    -2.1390    -0.7730 ca         1 45B      -0.039500
     13 C3           5.7730    -3.1100    -0.7210 ca         1 45B      -0.162500
     14 C14          5.1180    -0.4770    -0.2380 ca         1 45B      -0.039500
     15 C15          4.1220    -1.4400    -0.1960 ca         1 45B      -0.162500
     16 C2           4.4420    -2.7790    -0.4310 ca         1 45B       0.335000
     17 N5           3.5400    -3.8320    -0.4060 nu         1 45B      -0.927900
     18 C1           2.1960    -3.8450    -0.2210 ca         1 45B       0.408900
     19 N6           1.5140    -2.7400    -0.0080 nb         1 45B      -0.309000
     20 C16          1.5100    -5.0750    -0.2640 ca         1 45B      -0.062000
     21 F4           2.1930    -6.2110    -0.4810 f          1 45B      -0.172000
     22 C17          0.1600    -5.0700    -0.0850 ca         1 45B       0.147900
     23 N4          -0.5240    -3.9420     0.1280 nb         1 45B      -0.242000
     24 C5           0.1880    -2.8290     0.1560 ca         1 45B       0.421900
     25 N8          -0.4140    -1.6260     0.3690 nu         1 45B      -0.922900
     26 C           -1.7490    -1.2790     0.5420 ca         1 45B       0.320000
     27 C30         -2.0110     0.0750     0.7920 ca         1 45B      -0.149500
     28 C29         -3.3040     0.5280     0.9650 ca         1 45B      -0.063000
     29 C20         -4.3890    -0.3430     0.8990 ca         1 45B      -0.098300
     30 C19         -4.1210    -1.6820     0.6570 ca         1 45B      -0.063000
     31 C18         -2.8280    -2.1600     0.4800 ca         1 45B      -0.149500
     32 C21         -5.7910     0.1520     1.0860 c3         1 45B      -0.102100
     33 C22         -6.3250     0.8550    -0.1560 c          1 45B       0.606100
     34 O1          -5.6400     0.9590    -1.1620 o          1 45B      -0.584100
     35 N           -7.5770     1.3630    -0.0840 n          1 45B      -0.421800
     36 C28         -8.1650     2.0700    -1.2080 c6         1 45B       0.078500
     37 C27         -9.4840     1.4290    -1.6110 c6         1 45B       0.079000
     38 N2         -10.3730     1.3400    -0.4680 n          1 45B      -0.418800
     39 C24         -9.7870     0.6300     0.6510 c6         1 45B       0.079000
     40 C23         -8.4650     1.2710     1.0580 c6         1 45B       0.078500
     41 C25        -11.5900     1.9320    -0.4730 c          1 45B       0.609100
     42 O3         -12.0110     2.5380    -1.4500 o          1 45B      -0.599100
     43 C26        -12.4250     1.8130     0.7810 c3         1 45B      -0.177100
     44 H12          7.6650     5.8440     0.4530 ha         1 45B       0.129000
     45 H11         10.1190     5.8080     0.1390 ha         1 45B       0.120000
     46 H10         11.2830     3.6370    -0.1530 ha         1 45B       0.120000
     47 H9          10.0210     1.5420    -0.1290 ha         1 45B       0.143000
     48 HN1          6.5320     1.3350     0.7590 hn         1 45B       0.164000
     49 H4           7.7660    -2.4270    -1.0070 ha         1 45B       0.126500
     50 H3           6.0390    -4.1430    -0.9110 ha         1 45B       0.134500
     51 H14          4.8160     0.5510    -0.0780 ha         1 45B       0.126500
     52 H15          3.1080    -1.1430     0.0120 ha         1 45B       0.134500
     53 HN5          3.9550    -4.7350    -0.5830 hn         1 45B       0.515000
     54 H17         -0.4020    -5.9970    -0.1120 h4         1 45B       0.040100
     55 HN8          0.2370    -0.8560     0.3910 hn         1 45B       0.510000
     56 H30         -1.1890     0.7790     0.8490 ha         1 45B       0.130500
     57 H29         -3.4670     1.5810     1.1600 ha         1 45B       0.112000
     58 H19         -4.9410    -2.3900     0.6040 ha         1 45B       0.112000
     59 H18         -2.6680    -3.2100     0.2990 ha         1 45B       0.130500
     60 H21         -6.4470    -0.6830     1.3450 hc         1 45B       0.061700
     61 H21A        -5.8370     0.8420     1.9340 hc         1 45B       0.061700
     62 H28         -8.3360     3.1140    -0.9250 h1         1 45B       0.061450
     63 H28A        -7.4760     2.0590    -2.0480 h1         1 45B       0.061450
     64 H27         -9.9550     2.0150    -2.3960 h1         1 45B       0.062450
     65 H27A        -9.3000     0.4240    -2.0050 h1         1 45B       0.062450
     66 H24        -10.4550     0.6220     1.5070 h1         1 45B       0.062450
     67 H24A        -9.6110    -0.4120     0.3640 h1         1 45B       0.062450
     68 H23         -8.0220     0.6850     1.8580 h1         1 45B       0.061450
     69 H23A        -8.6540     2.2750     1.4530 h1         1 45B       0.061450
     70 H26        -11.9390     2.2870     1.6350 hc         1 45B       0.060367
     71 H26A       -13.3790     2.3060     0.6160 hc         1 45B       0.060367
     72 H26B       -12.6150     0.7740     1.0480 hc         1 45B       0.060367
@<TRIPOS>BOND
     1     1     2 1   
     2     2     3 ar  
     3     2     7 ar  
     4     3     4 ar  
     5     3    44 1   
     6     4     5 ar  
     7     4    45 1   
     8     5     6 ar  
     9     5    46 1   
    10     6     7 ar  
    11     6    47 1   
    12     7     8 1   
    13     8     9 1   
    14     8    48 1   
    15     9    10 2   
    16     9    11 1   
    17    11    12 ar  
    18    11    14 ar  
    19    12    13 ar  
    20    12    49 1   
    21    13    16 ar  
    22    13    50 1   
    23    14    15 ar  
    24    14    51 1   
    25    15    16 ar  
    26    15    52 1   
    27    16    17 1   
    28    17    18 1   
    29    17    53 1   
    30    18    19 ar  
    31    18    20 ar  
    32    19    24 ar  
    33    20    21 1   
    34    20    22 ar  
    35    22    23 ar  
    36    22    54 1   
    37    23    24 ar  
    38    24    25 1   
    39    25    26 1   
    40    25    55 1   
    41    26    27 ar  
    42    26    31 ar  
    43    27    28 ar  
    44    27    56 1   
    45    28    29 ar  
    46    28    57 1   
    47    29    30 ar  
    48    29    32 1   
    49    30    31 ar  
    50    30    58 1   
    51    31    59 1   
    52    32    33 1   
    53    32    60 1   
    54    32    61 1   
    55    33    34 2   
    56    33    35 1   
    57    35    36 1   
    58    35    40 1   
    59    36    37 1   
    60    36    62 1   
    61    36    63 1   
    62    37    38 1   
    63    37    64 1   
    64    37    65 1   
    65    38    39 1   
    66    38    41 1   
    67    39    40 1   
    68    39    66 1   
    69    39    67 1   
    70    40    68 1   
    71    40    69 1   
    72    41    42 2   
    73    41    43 1   
    74    43    70 1   
    75    43    71 1   
    76    43    72 1   
@<TRIPOS>SUBSTRUCTURE
     1 45B         1 TEMP              0 ****  ****    0 ROOT
