@<TRIPOS>MOLECULE
45C
   14    14     1     0     0
SMALL
bcc


@<TRIPOS>ATOM
      1 C1           1.7590    -0.8340    -0.1320 ca         1 45C       0.095100
      2 C2           1.8310     0.5650    -0.2110 ca         1 45C       0.095100
      3 C3           0.6730     1.3180    -0.1670 ca         1 45C      -0.150500
      4 C4          -0.5650     0.6990    -0.0450 ca         1 45C       0.028900
      5 C5          -0.6390    -0.6810     0.0340 ca         1 45C       0.028900
      6 C6           0.5220    -1.4420    -0.0090 ca         1 45C      -0.150500
      7 O7           2.8590    -1.6050    -0.1720 oh         1 45C      -0.500100
      8 O8           3.0670     1.0890    -0.3280 oh         1 45C      -0.500100
      9 CL9         -1.9890     1.6710     0.0090 cl         1 45C      -0.077400
     10 CL10        -2.1590    -1.4800     0.1880 cl         1 45C      -0.077400
     11 H3           0.7280     2.3980    -0.2270 ha         1 45C       0.159000
     12 H6           0.4650    -2.5210     0.0520 ha         1 45C       0.159000
     13 HO7          3.6540    -1.0620    -0.2460 ho         1 45C       0.445000
     14 HO8          3.0390     2.0520    -0.3650 ho         1 45C       0.445000
@<TRIPOS>BOND
     1     1     2 ar  
     2     1     6 ar  
     3     1     7 1   
     4     2     3 ar  
     5     2     8 1   
     6     3     4 ar  
     7     3    11 1   
     8     4     5 ar  
     9     4     9 1   
    10     5     6 ar  
    11     5    10 1   
    12     6    12 1   
    13     7    13 1   
    14     8    14 1   
@<TRIPOS>SUBSTRUCTURE
     1 45C         1 TEMP              0 ****  ****    0 ROOT
