@<TRIPOS>MOLECULE
45C
   14    14     1     0     0
SMALL
No Charge or Current Charge


@<TRIPOS>ATOM
      1 C1           1.7660    -0.8690    -0.1280 ca         1 45C       0.095100
      2 C2           1.8660     0.5360    -0.2090 ca         1 45C       0.095100
      3 C3           0.7010     1.3240    -0.1670 ca         1 45C      -0.132500
      4 C4          -0.5580     0.7080    -0.0440 ca         1 45C       0.120500
      5 C5          -0.6540    -0.6980     0.0360 ca         1 45C       0.120500
      6 C6           0.5110    -1.4840    -0.0060 ca         1 45C      -0.132500
      7 O7           2.8980    -1.6330    -0.1690 oh         1 45C      -0.539100
      8 O8           3.0980     1.1250    -0.3280 oh         1 45C      -0.539100
      9 Cl9         -2.0010     1.7220     0.0060 cl         1 45C      -0.169000
     10 Cl10        -2.2190    -1.4980     0.1900 cl         1 45C      -0.169000
     11 H3           0.7620     2.4070    -0.2280 ha         1 45C       0.141000
     12 H6           0.4380    -2.5670     0.0560 ha         1 45C       0.141000
     13 HO7          3.6530    -1.0070    -0.2560 ho         1 45C       0.484000
     14 HO8          2.9860     2.1010    -0.3710 ho         1 45C       0.484000
@<TRIPOS>BOND
     1     1     2 ar  
     2     1     6 ar  
     3     1     7 1   
     4     2     3 ar  
     5     2     8 1   
     6     3     4 ar  
     7     3    11 1   
     8     4     5 ar  
     9     4     9 1   
    10     5     6 ar  
    11     5    10 1   
    12     6    12 1   
    13     7    13 1   
    14     8    14 1   
@<TRIPOS>SUBSTRUCTURE
     1 45C         1 TEMP              0 ****  ****    0 ROOT
