@<TRIPOS>MOLECULE
45D
   94    95     1     0     0
SMALL
No Charge or Current Charge


@<TRIPOS>ATOM
      1 O01        -13.7780    -2.1040    -1.7540 o          1 45D      -0.531100
      2 O02         13.7850     2.0620    -1.7640 o          1 45D      -0.531100
      3 C03        -12.5530     0.2320     1.5400 c6         1 45D      -0.013800
      4 C04         12.5140    -0.1840     1.5780 c6         1 45D      -0.013800
      5 C05        -13.4870    -1.0040     1.6910 c6         1 45D      -0.064400
      6 C06         13.4360     1.0590     1.7060 c6         1 45D      -0.064400
      7 C07        -11.6980     0.1060     0.2480 ce         1 45D      -0.014200
      8 C08         11.6870    -0.1000     0.2650 ce         1 45D      -0.014200
      9 C09        -14.3090    -1.2680     0.4170 c6         1 45D      -0.177400
     10 C10         14.2760     1.2810     0.4370 c6         1 45D      -0.177400
     11 C11        -11.6510     0.3030     2.8160 c3         1 45D      -0.082100
     12 C12        -13.3760     1.5580     1.4750 c3         1 45D      -0.082100
     13 C14         11.5850    -0.2170     2.8370 c3         1 45D      -0.082100
     14 C15        -12.1280    -0.6170    -0.8440 cf         1 45D      -0.189400
     15 C16         12.1280     0.5920    -0.8420 cf         1 45D      -0.189400
     16 C17        -13.4280    -1.3810    -0.8280 c          1 45D       0.571300
     17 C18         13.4210     1.3620    -0.8260 c          1 45D       0.571300
     18 C19        -10.4590     0.9130     0.2560 ce         1 45D      -0.186000
     19 C20         10.4520    -0.9120     0.2750 ce         1 45D      -0.186000
     20 C21        -11.3590    -0.6440    -2.1680 c3         1 45D      -0.046900
     21 C22         11.3810     0.5760    -2.1780 c3         1 45D      -0.046900
     22 C23         -9.2260     0.4790    -0.1390 cf         1 45D      -0.161500
     23 C24          9.2230    -0.4940    -0.1490 cf         1 45D      -0.161500
     24 C25         -7.9710     1.2370    -0.1180 cf         1 45D      -0.072200
     25 C26          7.9710    -1.2570    -0.1280 cf         1 45D      -0.072200
     26 C27         -8.0660     2.7540     0.0200 c3         1 45D      -0.054900
     27 C28          8.0710    -2.7700     0.0500 c3         1 45D      -0.054900
     28 C29         -6.7800     0.5870    -0.2830 ce         1 45D      -0.169000
     29 C30          6.7800    -0.6180    -0.3270 ce         1 45D      -0.169000
     30 C31         -5.4340     1.1810    -0.2910 ce         1 45D      -0.176000
     31 C32          5.4370    -1.2190    -0.3400 ce         1 45D      -0.176000
     32 C33         -4.2920     0.4710    -0.5230 cf         1 45D      -0.169000
     33 C34          4.2960    -0.5200    -0.6060 cf         1 45D      -0.169000
     34 C35         -2.9160     0.9790    -0.5340 cf         1 45D      -0.064200
     35 C36          2.9200    -1.0320    -0.6230 cf         1 45D      -0.064200
     36 C37         -1.8680     0.1020    -0.5230 ce         1 45D      -0.174000
     37 C38          1.8760    -0.1470    -0.5740 ce         1 45D      -0.174000
     38 C39         -2.7220     2.4910    -0.6260 c3         1 45D      -0.055900
     39 C40          2.7350    -2.5440    -0.7620 c3         1 45D      -0.055900
     40 C41         -0.4320     0.4270    -0.5300 ce         1 45D      -0.171000
     41 C42          0.5570    -0.5070    -0.5820 cf         1 45D      -0.171000
     42 H052       -12.8830    -1.8960     1.9110 hc         1 45D       0.048700
     43 H051       -14.1620    -0.8730     2.5490 hc         1 45D       0.048700
     44 H062        12.8230     1.9540     1.8820 hc         1 45D       0.048700
     45 H061        14.0970     0.9610     2.5790 hc         1 45D       0.048700
     46 H092       -14.9520    -2.1540     0.5010 hc         1 45D       0.070200
     47 H091       -14.9750    -0.4120     0.2520 hc         1 45D       0.070200
     48 H102        14.9210     2.1670     0.5050 hc         1 45D       0.070200
     49 H101        14.9420     0.4190     0.3080 hc         1 45D       0.070200
     50 H113       -12.2560     0.2910     3.7310 hc         1 45D       0.037867
     51 H111       -10.9670    -0.5530     2.8650 hc         1 45D       0.037867
     52 H112       -11.0420     1.2140     2.8530 hc         1 45D       0.037867
     53 H122       -12.7260     2.4400     1.5020 hc         1 45D       0.037867
     54 H123       -13.9650     1.6270     0.5530 hc         1 45D       0.037867
     55 H121       -14.0700     1.6400     2.3200 hc         1 45D       0.037867
     56 H131        14.0220    -1.5590     2.4310 hc         1 45D       0.037867
     57 H132        12.6930    -2.3910     1.6190 hc         1 45D       0.037867
     58 H133        13.9460    -1.6090     0.6640 hc         1 45D       0.037867
     59 H141        10.8980     0.6380     2.8440 hc         1 45D       0.037867
     60 H143        10.9790    -1.1290     2.8900 hc         1 45D       0.037867
     61 H142        12.1710    -0.1740     3.7630 hc         1 45D       0.037867
     62 H191       -10.5530     1.9180     0.6660 ha         1 45D       0.180000
     63 H201        10.5440    -1.9060     0.7120 ha         1 45D       0.180000
     64 H212       -10.6350    -1.4670    -2.1880 hc         1 45D       0.048367
     65 H213       -12.0230    -0.7730    -3.0310 hc         1 45D       0.048367
     66 H211       -10.8160     0.2900    -2.3490 hc         1 45D       0.048367
     67 H223        10.6510     1.3920    -2.2340 hc         1 45D       0.048367
     68 H222        12.0580     0.6850    -3.0340 hc         1 45D       0.048367
     69 H221        10.8470    -0.3670    -2.3410 hc         1 45D       0.048367
     70 H231        -9.1490    -0.5560    -0.4750 ha         1 45D       0.177000
     71 H241         9.1470     0.5320    -0.5120 ha         1 45D       0.177000
     72 H273        -8.0190     3.0580     1.0720 hc         1 45D       0.042367
     73 H272        -7.2620     3.2700    -0.5150 hc         1 45D       0.042367
     74 H271        -8.9970     3.1480    -0.4030 hc         1 45D       0.042367
     75 H281         8.0100    -3.0480     1.1090 hc         1 45D       0.042367
     76 H282         7.2770    -3.3040    -0.4830 hc         1 45D       0.042367
     77 H283         9.0100    -3.1700    -0.3490 hc         1 45D       0.042367
     78 H291        -6.8120    -0.4970    -0.4100 ha         1 45D       0.170000
     79 H301         6.8090     0.4630    -0.4810 ha         1 45D       0.170000
     80 H311        -5.3580     2.2450    -0.0720 ha         1 45D       0.175000
     81 H321         5.3630    -2.2770    -0.0930 ha         1 45D       0.175000
     82 H331        -4.4040    -0.6000    -0.7040 ha         1 45D       0.171000
     83 H341         4.4060     0.5470    -0.8080 ha         1 45D       0.171000
     84 H371        -2.1030    -0.9630    -0.4900 ha         1 45D       0.169500
     85 H381         2.1160     0.9170    -0.5130 ha         1 45D       0.169500
     86 H393        -2.6660     2.9430     0.3710 hc         1 45D       0.043033
     87 H392        -1.8090     2.7590    -1.1680 hc         1 45D       0.043033
     88 H391        -3.5380     2.9770    -1.1720 hc         1 45D       0.043033
     89 H401         2.5570    -3.0120     0.2130 hc         1 45D       0.043033
     90 H402         1.8930    -2.7970    -1.4160 hc         1 45D       0.043033
     91 H403         3.6040    -3.0320    -1.2150 hc         1 45D       0.043033
     92 H411        -0.1510     1.4800    -0.4790 ha         1 45D       0.173000
     93 H421         0.2670    -1.5580    -0.6240 ha         1 45D       0.173000
     94 C13         13.3420    -1.5090     1.5720 c3         1 45D      -0.082100
@<TRIPOS>BOND
     1     1    16 2   
     2     2    17 2   
     3     3     5 1   
     4     3     7 1   
     5     3    11 1   
     6     3    12 1   
     7     4     6 1   
     8     4     8 1   
     9     4    13 1   
    10     4    94 1   
    11     5     9 1   
    12     5    42 1   
    13     5    43 1   
    14     6    10 1   
    15     6    44 1   
    16     6    45 1   
    17     7    14 2   
    18     7    18 1   
    19     8    15 2   
    20     8    19 1   
    21     9    16 1   
    22     9    46 1   
    23     9    47 1   
    24    10    17 1   
    25    10    48 1   
    26    10    49 1   
    27    11    50 1   
    28    11    51 1   
    29    11    52 1   
    30    12    53 1   
    31    12    54 1   
    32    12    55 1   
    33    13    59 1   
    34    13    60 1   
    35    13    61 1   
    36    14    16 1   
    37    14    20 1   
    38    15    17 1   
    39    15    21 1   
    40    18    22 2   
    41    18    62 1   
    42    19    23 2   
    43    19    63 1   
    44    20    64 1   
    45    20    65 1   
    46    20    66 1   
    47    21    67 1   
    48    21    68 1   
    49    21    69 1   
    50    22    24 1   
    51    22    70 1   
    52    23    25 1   
    53    23    71 1   
    54    24    26 1   
    55    24    28 2   
    56    25    27 1   
    57    25    29 2   
    58    26    72 1   
    59    26    73 1   
    60    26    74 1   
    61    27    75 1   
    62    27    76 1   
    63    27    77 1   
    64    28    30 1   
    65    28    78 1   
    66    29    31 1   
    67    29    79 1   
    68    30    32 2   
    69    30    80 1   
    70    31    33 2   
    71    31    81 1   
    72    32    34 1   
    73    32    82 1   
    74    33    35 1   
    75    33    83 1   
    76    34    36 2   
    77    34    38 1   
    78    35    37 2   
    79    35    39 1   
    80    36    40 1   
    81    36    84 1   
    82    37    41 1   
    83    37    85 1   
    84    38    86 1   
    85    38    87 1   
    86    38    88 1   
    87    39    89 1   
    88    39    90 1   
    89    39    91 1   
    90    40    41 2   
    91    40    92 1   
    92    41    93 1   
    93    56    94 1   
    94    57    94 1   
    95    58    94 1   
@<TRIPOS>SUBSTRUCTURE
     1 45D         1 TEMP              0 ****  ****    0 ROOT
