@<TRIPOS>MOLECULE
45D
   94    95     1     0     0
SMALL
bcc


@<TRIPOS>ATOM
      1 O01        -13.2650    -2.6340    -1.2680 o          1 45D      -0.531100
      2 O02         13.2360     2.6600    -1.2420 o          1 45D      -0.531100
      3 C03        -12.3910     0.4460     1.4050 c6         1 45D      -0.013800
      4 C04         12.3810    -0.4320     1.4260 c6         1 45D      -0.013800
      5 C05        -13.2640    -0.7490     1.7850 c6         1 45D      -0.064400
      6 C06         13.2510     0.7670     1.8030 c6         1 45D      -0.064400
      7 C07        -11.5120     0.0960     0.2070 ce         1 45D      -0.014200
      8 C08         11.5030    -0.0890     0.2250 ce         1 45D      -0.014200
      9 C09        -13.9820    -1.3580     0.5990 c6         1 45D      -0.177400
     10 C10         13.9660     1.3770     0.6160 c6         1 45D      -0.177400
     11 C11        -11.5290     0.7890     2.6260 c3         1 45D      -0.082100
     12 C12        -13.2580     1.6610     1.0480 c3         1 45D      -0.082100
     13 C14         11.5190    -0.7720     2.6470 c3         1 45D      -0.082100
     14 C15        -11.8180    -0.8850    -0.6800 cf         1 45D      -0.189400
     15 C16         11.8050     0.8930    -0.6630 cf         1 45D      -0.189400
     16 C17        -13.0280    -1.7120    -0.5060 c          1 45D       0.571300
     17 C18         13.0080     1.7300    -0.4860 c          1 45D       0.571300
     18 C19        -10.3240     0.9380     0.0670 ce         1 45D      -0.136000
     19 C20         10.3200    -0.9380     0.0850 ce         1 45D      -0.136000
     20 C21        -11.0200    -1.1920    -1.9140 c3         1 45D      -0.046900
     21 C22         11.0060     1.1930    -1.8990 c3         1 45D      -0.046900
     22 C23         -9.0760     0.4770    -0.1230 cf         1 45D      -0.111500
     23 C24          9.0720    -0.4870    -0.1220 cf         1 45D      -0.111500
     24 C25         -7.8790     1.2940    -0.1890 cf         1 45D      -0.072200
     25 C26          7.8790    -1.3110    -0.1780 cf         1 45D      -0.072200
     26 C27         -8.0310     2.7800    -0.0950 c3         1 45D      -0.054900
     27 C28          8.0380    -2.7960    -0.0590 c3         1 45D      -0.054900
     28 C29         -6.6880     0.6570    -0.3180 ce         1 45D      -0.119000
     29 C30          6.6850    -0.6830    -0.3190 ce         1 45D      -0.119000
     30 C31         -5.3860     1.2560    -0.3980 ce         1 45D      -0.126000
     31 C32          5.3850    -1.2880    -0.3790 ce         1 45D      -0.126000
     32 C33         -4.2550     0.5190    -0.4700 cf         1 45D      -0.119000
     33 C34          4.2510    -0.5570    -0.4680 cf         1 45D      -0.119000
     34 C35         -2.9110     1.0440    -0.5370 cf         1 45D      -0.064200
     35 C36          2.9090    -1.0890    -0.5080 cf         1 45D      -0.064200
     36 C37         -1.8810     0.1570    -0.5480 ce         1 45D      -0.124000
     37 C38          1.8760    -0.2050    -0.5500 ce         1 45D      -0.124000
     38 C39         -2.7290     2.5320    -0.5780 c3         1 45D      -0.055900
     39 C40          2.7320    -2.5770    -0.4860 c3         1 45D      -0.055900
     40 C41         -0.4810     0.4550    -0.5750 ce         1 45D      -0.121000
     41 C42          0.4760    -0.5050    -0.5560 cf         1 45D      -0.121000
     42 H052       -12.6310    -1.5130     2.2480 hc         1 45D       0.048700
     43 H051       -13.9860    -0.4450     2.5460 hc         1 45D       0.048700
     44 H062        12.6160     1.5300     2.2650 hc         1 45D       0.048700
     45 H061        13.9740     0.4670     2.5650 hc         1 45D       0.048700
     46 H092       -14.5410    -2.2490     0.8890 hc         1 45D       0.070200
     47 H091       -14.7150    -0.6580     0.1830 hc         1 45D       0.070200
     48 H102        14.5250     2.2680     0.9040 hc         1 45D       0.070200
     49 H101        14.6980     0.6770     0.1980 hc         1 45D       0.070200
     50 H113       -12.1680     0.8970     3.5050 hc         1 45D       0.037867
     51 H111       -10.8060    -0.0010     2.8350 hc         1 45D       0.037867
     52 H112       -10.9800     1.7240     2.5070 hc         1 45D       0.037867
     53 H122       -12.6480     2.5230     0.7710 hc         1 45D       0.037867
     54 H123       -13.9340     1.4590     0.2170 hc         1 45D       0.037867
     55 H121       -13.8610     1.9540     1.9100 hc         1 45D       0.037867
     56 H131        13.8550    -1.9330     1.9380 hc         1 45D       0.037867
     57 H132        12.6450    -2.5110     0.8020 hc         1 45D       0.037867
     58 H133        13.9280    -1.4450     0.2430 hc         1 45D       0.037867
     59 H141        10.7930     0.0160     2.8510 hc         1 45D       0.037867
     60 H143        10.9730    -1.7090     2.5330 hc         1 45D       0.037867
     61 H142        12.1570    -0.8740     3.5270 hc         1 45D       0.037867
     62 H191       -10.4760     2.0020     0.2210 ha         1 45D       0.130000
     63 H201        10.4770    -1.9990     0.2540 ha         1 45D       0.130000
     64 H212       -10.4140    -2.0940    -1.7930 hc         1 45D       0.048367
     65 H213       -11.6790    -1.3710    -2.7630 hc         1 45D       0.048367
     66 H211       -10.3450    -0.3810    -2.1750 hc         1 45D       0.048367
     67 H223        10.3790     2.0790    -1.7740 hc         1 45D       0.048367
     68 H222        11.6660     1.3930    -2.7430 hc         1 45D       0.048367
     69 H221        10.3520     0.3680    -2.1700 hc         1 45D       0.048367
     70 H231        -8.9240    -0.5950    -0.2090 ha         1 45D       0.127000
     71 H241         8.9130     0.5820    -0.2230 ha         1 45D       0.127000
     72 H273        -8.4660     3.0650     0.8660 hc         1 45D       0.042367
     73 H272        -7.0890     3.3130    -0.1970 hc         1 45D       0.042367
     74 H271        -8.7040     3.1550    -0.8680 hc         1 45D       0.042367
     75 H281         8.4610    -3.0640     0.9120 hc         1 45D       0.042367
     76 H282         7.1010    -3.3350    -0.1660 hc         1 45D       0.042367
     77 H283         8.7230    -3.1780    -0.8180 hc         1 45D       0.042367
     78 H291        -6.7070    -0.4290    -0.3600 ha         1 45D       0.120000
     79 H301         6.6990     0.4030    -0.3810 ha         1 45D       0.120000
     80 H311        -5.3120     2.3370    -0.3910 ha         1 45D       0.125000
     81 H321         5.3140    -2.3690    -0.3410 ha         1 45D       0.125000
     82 H331        -4.3470    -0.5650    -0.4680 ha         1 45D       0.121000
     83 H341         4.3400     0.5260    -0.4990 ha         1 45D       0.121000
     84 H371        -2.1360    -0.8990    -0.5170 ha         1 45D       0.119500
     85 H381         2.1290     0.8520    -0.5660 ha         1 45D       0.119500
     86 H393        -3.1030     2.9990     0.3360 hc         1 45D       0.043033
     87 H392        -1.6910     2.8290    -0.6970 hc         1 45D       0.043033
     88 H391        -3.2890     2.9690    -1.4080 hc         1 45D       0.043033
     89 H401         3.1340    -3.0070     0.4340 hc         1 45D       0.043033
     90 H402         1.6910    -2.8820    -0.5620 hc         1 45D       0.043033
     91 H403         3.2690    -3.0440    -1.3130 hc         1 45D       0.043033
     92 H411        -0.1650     1.4930    -0.5990 ha         1 45D       0.123000
     93 H421         0.1610    -1.5440    -0.5310 ha         1 45D       0.123000
     94 C13         13.2520    -1.6460     1.0750 c3         1 45D      -0.082100
@<TRIPOS>BOND
     1     1    16 2   
     2     2    17 2   
     3     3     5 1   
     4     3     7 1   
     5     3    11 1   
     6     3    12 1   
     7     4     6 1   
     8     4     8 1   
     9     4    13 1   
    10     4    94 1   
    11     5     9 1   
    12     5    42 1   
    13     5    43 1   
    14     6    10 1   
    15     6    44 1   
    16     6    45 1   
    17     7    14 2   
    18     7    18 1   
    19     8    15 2   
    20     8    19 1   
    21     9    16 1   
    22     9    46 1   
    23     9    47 1   
    24    10    17 1   
    25    10    48 1   
    26    10    49 1   
    27    11    50 1   
    28    11    51 1   
    29    11    52 1   
    30    12    53 1   
    31    12    54 1   
    32    12    55 1   
    33    13    59 1   
    34    13    60 1   
    35    13    61 1   
    36    14    16 1   
    37    14    20 1   
    38    15    17 1   
    39    15    21 1   
    40    18    22 2   
    41    18    62 1   
    42    19    23 2   
    43    19    63 1   
    44    20    64 1   
    45    20    65 1   
    46    20    66 1   
    47    21    67 1   
    48    21    68 1   
    49    21    69 1   
    50    22    24 1   
    51    22    70 1   
    52    23    25 1   
    53    23    71 1   
    54    24    26 1   
    55    24    28 2   
    56    25    27 1   
    57    25    29 2   
    58    26    72 1   
    59    26    73 1   
    60    26    74 1   
    61    27    75 1   
    62    27    76 1   
    63    27    77 1   
    64    28    30 1   
    65    28    78 1   
    66    29    31 1   
    67    29    79 1   
    68    30    32 2   
    69    30    80 1   
    70    31    33 2   
    71    31    81 1   
    72    32    34 1   
    73    32    82 1   
    74    33    35 1   
    75    33    83 1   
    76    34    36 2   
    77    34    38 1   
    78    35    37 2   
    79    35    39 1   
    80    36    40 1   
    81    36    84 1   
    82    37    41 1   
    83    37    85 1   
    84    38    86 1   
    85    38    87 1   
    86    38    88 1   
    87    39    89 1   
    88    39    90 1   
    89    39    91 1   
    90    40    41 2   
    91    40    92 1   
    92    41    93 1   
    93    56    94 1   
    94    57    94 1   
    95    58    94 1   
@<TRIPOS>SUBSTRUCTURE
     1 45D         1 TEMP              0 ****  ****    0 ROOT
