@<TRIPOS>MOLECULE
45E
   55    57     1     0     0
SMALL
No Charge or Current Charge


@<TRIPOS>ATOM
      1 O17          2.2610    -2.0250    -0.5060 o          1 45E      -0.565100
      2 C16          2.2170    -0.9680     0.1180 c          1 45E       0.609100
      3 C18          3.4740    -0.0740     0.2950 c3         1 45E       0.082600
      4 O19          4.6560    -0.6540    -0.3060 os         1 45E      -0.314100
      5 C20          5.8840    -0.0270    -0.2640 ca         1 45E       0.139100
      6 C26          6.9720    -0.6710    -0.8770 ca         1 45E      -0.138000
      7 C24          8.2510    -0.0850    -0.8700 ca         1 45E      -0.039300
      8 C25          9.4220    -0.7890    -1.5390 c3         1 45E      -0.048800
      9 C23          8.4350     1.1610    -0.2430 ca         1 45E      -0.146000
     10 C22          7.3540     1.8120     0.3730 ca         1 45E      -0.071000
     11 C21          6.0780     1.2220     0.3650 ca         1 45E      -0.205000
     12 N13          1.0140    -0.5630     0.7530 n          1 45E      -0.420800
     13 C12         -0.2230    -1.3860     0.5630 c6         1 45E       0.081000
     14 C11         -1.3930    -1.0550     1.5220 c6         1 45E       0.080000
     15 C14          0.7800     0.8750     1.1100 c6         1 45E       0.081000
     16 C15         -0.4200     1.1210     2.0560 c6         1 45E       0.080000
     17 N10         -1.6310     0.4050     1.6040 n          1 45E      -0.415800
     18 C8          -2.6810     1.0570     0.9140 c          1 45E       0.628700
     19 O9          -2.5960     2.2470     0.6330 o          1 45E      -0.572100
     20 C7          -3.9580     0.2810     0.6820 ca         1 45E      -0.127600
     21 C6          -4.5220    -0.4530     1.7480 ca         1 45E      -0.117000
     22 C5          -5.7170    -1.1590     1.5740 ca         1 45E      -0.080000
     23 C4          -6.3710    -1.1370     0.3350 ca         1 45E      -0.180000
     24 C27         -4.6100     0.3150    -0.5760 ca         1 45E       0.103100
     25 O28         -3.9690     1.0340    -1.5820 os         1 45E      -0.335100
     26 C29         -4.4530     1.1940    -2.9270 c3         1 45E       0.149900
     27 C3          -5.8350    -0.4080    -0.7530 ca         1 45E       0.119100
     28 O2          -6.4950    -0.4010    -1.9720 os         1 45E      -0.326100
     29 C1          -7.7260    -1.1080    -2.2080 c3         1 45E       0.144900
     30 H1           3.2550     0.9000    -0.1600 h1         1 45E       0.049700
     31 H2           3.6240     0.0720     1.3720 h1         1 45E       0.049700
     32 H3           6.8160    -1.6320    -1.3620 ha         1 45E       0.131000
     33 H4           9.4990    -0.5000    -2.5940 hc         1 45E       0.044367
     34 H5          10.3720    -0.5370    -1.0520 hc         1 45E       0.044367
     35 H6           9.3100    -1.8790    -1.4970 hc         1 45E       0.044367
     36 H7           9.4180     1.6270    -0.2330 ha         1 45E       0.114000
     37 H8           7.5040     2.7760     0.8560 ha         1 45E       0.110000
     38 H9           5.2590     1.7470     0.8480 ha         1 45E       0.111000
     39 H10         -0.5720    -1.2440    -0.4700 h1         1 45E       0.062700
     40 H11          0.0220    -2.4520     0.6750 h1         1 45E       0.062700
     41 H12         -2.2860    -1.5960     1.1830 h1         1 45E       0.063950
     42 H13         -1.1500    -1.4310     2.5260 h1         1 45E       0.063950
     43 H14          1.6730     1.3000     1.5890 h1         1 45E       0.062700
     44 H15          0.6120     1.4370     0.1810 h1         1 45E       0.062700
     45 H16         -0.1570     0.7640     3.0620 h1         1 45E       0.063950
     46 H17         -0.6090     2.2000     2.1420 h1         1 45E       0.063950
     47 H18         -4.0350    -0.4660     2.7210 ha         1 45E       0.124000
     48 H19         -6.1410    -1.7200     2.4040 ha         1 45E       0.118000
     49 H20         -7.2960    -1.6970     0.2430 ha         1 45E       0.121000
     50 H21         -3.7580     1.8160    -3.5050 h1         1 45E       0.035367
     51 H22         -4.5330     0.2240    -3.4330 h1         1 45E       0.035367
     52 H23         -5.4320     1.6900    -2.9350 h1         1 45E       0.035367
     53 H24         -8.0580    -0.9570    -3.2420 h1         1 45E       0.043033
     54 H25         -7.5940    -2.1860    -2.0490 h1         1 45E       0.043033
     55 H26         -8.5190    -0.7460    -1.5410 h1         1 45E       0.043033
@<TRIPOS>BOND
     1     1     2 2   
     2     2     3 1   
     3     2    12 1   
     4     3     4 1   
     5     3    30 1   
     6     3    31 1   
     7     4     5 1   
     8     5     6 ar  
     9     5    11 ar  
    10     6     7 ar  
    11     6    32 1   
    12     7     8 1   
    13     7     9 ar  
    14     8    33 1   
    15     8    34 1   
    16     8    35 1   
    17     9    10 ar  
    18     9    36 1   
    19    10    11 ar  
    20    10    37 1   
    21    11    38 1   
    22    12    13 1   
    23    12    15 1   
    24    13    14 1   
    25    13    39 1   
    26    13    40 1   
    27    14    17 1   
    28    14    41 1   
    29    14    42 1   
    30    15    16 1   
    31    15    43 1   
    32    15    44 1   
    33    16    17 1   
    34    16    45 1   
    35    16    46 1   
    36    17    18 1   
    37    18    19 2   
    38    18    20 1   
    39    20    21 ar  
    40    20    24 ar  
    41    21    22 ar  
    42    21    47 1   
    43    22    23 ar  
    44    22    48 1   
    45    23    27 ar  
    46    23    49 1   
    47    24    25 1   
    48    24    27 ar  
    49    25    26 1   
    50    26    50 1   
    51    26    51 1   
    52    26    52 1   
    53    27    28 1   
    54    28    29 1   
    55    29    53 1   
    56    29    54 1   
    57    29    55 1   
@<TRIPOS>SUBSTRUCTURE
     1 45E         1 TEMP              0 ****  ****    0 ROOT
