@<TRIPOS>MOLECULE
45E
   55    57     1     0     0
SMALL
bcc


@<TRIPOS>ATOM
      1 O17          2.2910    -1.8090    -0.9980 o          1 45E      -0.565100
      2 C16          2.1280    -0.6630    -0.6200 c          1 45E       0.676100
      3 C18          3.3190     0.2100    -0.2430 c3         1 45E       0.059400
      4 O19          4.4700    -0.5630    -0.4270 os         1 45E      -0.290900
      5 C20          5.6700     0.0020    -0.1670 ca         1 45E       0.139100
      6 C26          6.7780    -0.8290    -0.3420 ca         1 45E      -0.156000
      7 C24          8.0650    -0.3640    -0.1100 ca         1 45E      -0.039300
      8 C25          9.2490    -1.2610    -0.3300 c3         1 45E      -0.048800
      9 C23          8.2380     0.9570     0.3100 ca         1 45E      -0.164000
     10 C22          7.1380     1.7780     0.4860 ca         1 45E      -0.089000
     11 C21          5.8470     1.3160     0.2530 ca         1 45E      -0.223000
     12 N13          0.9130    -0.0860    -0.5150 n          1 45E      -0.487800
     13 C12         -0.2950    -0.8220    -0.8270 c6         1 45E       0.081000
     14 C11         -1.2270    -0.8620     0.3760 c6         1 45E       0.080000
     15 C14          0.6490     1.2640    -0.0530 c6         1 45E       0.081000
     16 C15         -0.2680     1.2340     1.1610 c6         1 45E       0.080000
     17 N10         -1.4750     0.4800     0.8730 n          1 45E      -0.482800
     18 C8          -2.6910     1.0130     1.1090 c          1 45E       0.695700
     19 O9          -2.8590     2.1620     1.4860 o          1 45E      -0.572100
     20 C7          -3.8780     0.1100     0.9410 ca         1 45E      -0.127600
     21 C6          -4.1510    -0.8610     1.9030 ca         1 45E      -0.135000
     22 C5          -5.3120    -1.6030     1.8080 ca         1 45E      -0.098000
     23 C4          -6.2090    -1.3900     0.7670 ca         1 45E      -0.198000
     24 C27         -4.7650     0.3380    -0.0980 ca         1 45E       0.103100
     25 O28         -4.5030     1.3070    -1.0140 os         1 45E      -0.311900
     26 C29         -3.9290     0.8410    -2.2280 c3         1 45E       0.126700
     27 C3          -5.9430    -0.4210    -0.1950 ca         1 45E       0.119100
     28 O2          -6.7450    -0.1290    -1.2320 os         1 45E      -0.302900
     29 C1          -7.9450    -0.8640    -1.3820 c3         1 45E       0.121700
     30 H1           3.3340     1.1080    -0.8740 h1         1 45E       0.049700
     31 H2           3.2280     0.5410     0.7990 h1         1 45E       0.049700
     32 H3           6.6190    -1.8520    -0.6620 ha         1 45E       0.149000
     33 H4           9.5890    -1.2080    -1.3670 hc         1 45E       0.044367
     34 H5          10.0890    -0.9720     0.3000 hc         1 45E       0.044367
     35 H6           9.0090    -2.3030    -0.1210 hc         1 45E       0.044367
     36 H7           9.2340     1.3360     0.5010 ha         1 45E       0.132000
     37 H8           7.2780     2.8000     0.8150 ha         1 45E       0.128000
     38 H9           5.0120     1.9860     0.4060 ha         1 45E       0.129000
     39 H10         -0.7990    -0.3390    -1.6710 h1         1 45E       0.062700
     40 H11         -0.0450    -1.8360    -1.1250 h1         1 45E       0.062700
     41 H12         -2.1600    -1.3360     0.0830 h1         1 45E       0.063950
     42 H13         -0.7780    -1.4690     1.1690 h1         1 45E       0.063950
     43 H14          1.5650     1.7850     0.2130 h1         1 45E       0.062700
     44 H15          0.1780     1.8340    -0.8600 h1         1 45E       0.062700
     45 H16          0.2550     0.7650     2.0010 h1         1 45E       0.063950
     46 H17         -0.5280     2.2480     1.4480 h1         1 45E       0.063950
     47 H18         -3.4550    -1.0290     2.7150 ha         1 45E       0.142000
     48 H19         -5.5350    -2.3570     2.5520 ha         1 45E       0.136000
     49 H20         -7.1100    -1.9850     0.7200 ha         1 45E       0.139000
     50 H21         -3.7970     1.7070    -2.8730 h1         1 45E       0.035367
     51 H22         -2.9510     0.3830    -2.0560 h1         1 45E       0.035367
     52 H23         -4.5700     0.1170    -2.7360 h1         1 45E       0.035367
     53 H24         -8.4400    -0.4670    -2.2640 h1         1 45E       0.043033
     54 H25         -7.7540    -1.9290    -1.5330 h1         1 45E       0.043033
     55 H26         -8.6070    -0.7430    -0.5210 h1         1 45E       0.043033
@<TRIPOS>BOND
     1     1     2 2   
     2     2     3 1   
     3     2    12 1   
     4     3     4 1   
     5     3    30 1   
     6     3    31 1   
     7     4     5 1   
     8     5     6 ar  
     9     5    11 ar  
    10     6     7 ar  
    11     6    32 1   
    12     7     8 1   
    13     7     9 ar  
    14     8    33 1   
    15     8    34 1   
    16     8    35 1   
    17     9    10 ar  
    18     9    36 1   
    19    10    11 ar  
    20    10    37 1   
    21    11    38 1   
    22    12    13 1   
    23    12    15 1   
    24    13    14 1   
    25    13    39 1   
    26    13    40 1   
    27    14    17 1   
    28    14    41 1   
    29    14    42 1   
    30    15    16 1   
    31    15    43 1   
    32    15    44 1   
    33    16    17 1   
    34    16    45 1   
    35    16    46 1   
    36    17    18 1   
    37    18    19 2   
    38    18    20 1   
    39    20    21 ar  
    40    20    24 ar  
    41    21    22 ar  
    42    21    47 1   
    43    22    23 ar  
    44    22    48 1   
    45    23    27 ar  
    46    23    49 1   
    47    24    25 1   
    48    24    27 ar  
    49    25    26 1   
    50    26    50 1   
    51    26    51 1   
    52    26    52 1   
    53    27    28 1   
    54    28    29 1   
    55    29    53 1   
    56    29    54 1   
    57    29    55 1   
@<TRIPOS>SUBSTRUCTURE
     1 45E         1 TEMP              0 ****  ****    0 ROOT
