@<TRIPOS>MOLECULE
45F
   22    22     1     0     0
SMALL
No Charge or Current Charge


@<TRIPOS>ATOM
      1 CB          -0.5820     0.7220     0.4600 c5         1 45F      -0.069400
      2 CD           0.1830    -1.5650     0.0660 c5         1 45F       0.130800
      3 C           -3.0810     0.4410    -0.0130 c          1 45F       0.711000
      4 O           -3.2200     0.6610    -1.2110 o          1 45F      -0.729000
      5 CA          -1.7630    -0.2820     0.4970 c5         1 45F       0.020500
      6 CG           0.5980    -0.2270     0.7810 c5         1 45F       0.136300
      7 N           -1.2420    -1.4180    -0.3440 n7         1 45F      -0.869400
      8 O48          1.7910     0.3240     0.1680 os         1 45F      -0.445000
      9 C49          3.0230    -0.3880     0.3810 c3         1 45F       0.244700
     10 C50          4.1090     0.3420    -0.2870 c1         1 45F      -0.119100
     11 C51          5.0230     0.9230    -0.8300 c1         1 45F      -0.263000
     12 HB3         -0.4760     1.1920    -0.5250 hc         1 45F       0.055200
     13 HB2         -0.6890     1.5210     1.2030 hc         1 45F       0.055200
     14 HD2          0.8060    -1.7840    -0.8130 h1         1 45F       0.020200
     15 HD3          0.2900    -2.4060     0.7640 h1         1 45F       0.020200
     16 HA          -1.9420    -0.6240     1.5260 h1         1 45F       0.048700
     17 HG2          0.7440    -0.3590     1.8620 h1         1 45F       0.029700
     18 H49          3.2480    -0.4620     1.4530 h1         1 45F       0.033700
     19 H50          2.9710    -1.4040    -0.0320 h1         1 45F       0.033700
     20 H51          5.8230     1.4460    -1.3160 ha         1 45F       0.245000
     21 H           -1.2630    -1.0940    -1.3230 hn         1 45F       0.441000
     22 OXT         -3.9630     0.7040     0.7940 o          1 45F      -0.729000
@<TRIPOS>BOND
     1     1     5 1   
     2     1     6 1   
     3     1    12 1   
     4     1    13 1   
     5     2     6 1   
     6     2     7 1   
     7     2    14 1   
     8     2    15 1   
     9     3     4 1   
    10     3     5 1   
    11     3    22 1   
    12     5     7 1   
    13     5    16 1   
    14     6     8 1   
    15     6    17 1   
    16     7    21 1   
    17     8     9 1   
    18     9    10 1   
    19     9    18 1   
    20     9    19 1   
    21    10    11 3   
    22    11    20 1   
@<TRIPOS>SUBSTRUCTURE
     1 45F         1 TEMP              0 ****  ****    0 ROOT
