@<TRIPOS>MOLECULE
45F
   22    22     1     0     0
SMALL
abcg2


@<TRIPOS>ATOM
      1 CB          -0.5280     0.7370     0.4970 c5         1 45F      -0.069400
      2 CD           0.1370    -1.4290    -0.2010 c5         1 45F       0.130800
      3 C           -2.9710     0.3370    -0.0780 c          1 45F       0.711000
      4 O           -3.4090    -0.3190    -1.0440 o          1 45F      -0.729000
      5 CA          -1.7270    -0.2050     0.6500 c5         1 45F       0.020500
      6 CG           0.6470    -0.2180     0.5870 c5         1 45F       0.136300
      7 N           -1.2720    -1.5120     0.1680 n7         1 45F      -0.869400
      8 O48          1.8170     0.3760     0.0760 os         1 45F      -0.445000
      9 C49          2.9670    -0.4140     0.2490 c3         1 45F       0.244700
     10 C50          4.1390     0.3730    -0.1190 c1         1 45F      -0.119100
     11 C51          5.1090     1.0180    -0.4110 c1         1 45F      -0.263000
     12 HB3         -0.5240     1.2100    -0.4910 hc         1 45F       0.055200
     13 HB2         -0.5060     1.5250     1.2500 hc         1 45F       0.055200
     14 HD2          0.2980    -1.2430    -1.2720 h1         1 45F       0.020200
     15 HD3          0.6700    -2.3500     0.0530 h1         1 45F       0.020200
     16 HA          -1.9810    -0.2750     1.7160 h1         1 45F       0.048700
     17 HG2          0.8080    -0.5130     1.6360 h1         1 45F       0.029700
     18 H49          3.0710    -0.7450     1.2910 h1         1 45F       0.033700
     19 H50          2.9400    -1.3210    -0.3680 h1         1 45F       0.033700
     20 H51          5.9710     1.5890    -0.6690 ha         1 45F       0.245000
     21 H           -1.8410    -1.7650    -0.6300 hn         1 45F       0.441000
     22 OXT         -3.4260     1.4080     0.3680 o          1 45F      -0.729000
@<TRIPOS>BOND
     1     1     5 1   
     2     1     6 1   
     3     1    12 1   
     4     1    13 1   
     5     2     6 1   
     6     2     7 1   
     7     2    14 1   
     8     2    15 1   
     9     3     4 1   
    10     3     5 1   
    11     3    22 1   
    12     5     7 1   
    13     5    16 1   
    14     6     8 1   
    15     6    17 1   
    16     7    21 1   
    17     8     9 1   
    18     9    10 1   
    19     9    18 1   
    20     9    19 1   
    21    10    11 3   
    22    11    20 1   
@<TRIPOS>SUBSTRUCTURE
     1 45F         1 TEMP              0 ****  ****    0 ROOT
