@<TRIPOS>MOLECULE
45I
   40    41     1     0     0
SMALL
No Charge or Current Charge


@<TRIPOS>ATOM
      1 O18         -3.6910     4.3460    11.0400 o          1 45I      -0.689500
      2 C17         -4.4440     3.3870    11.1570 c          1 45I       0.711600
      3 O17         -4.9020     2.7690    10.2060 o          1 45I      -0.689500
      4 C10         -4.7190     2.8630    12.5610 ca         1 45I       0.019400
      5 C9          -4.4390     1.5050    12.8290 ca         1 45I      -0.136000
      6 C8          -4.6320     0.9610    14.1070 ca         1 45I       0.014000
      7 C7          -5.1110     1.7730    15.1490 ca         1 45I      -0.315500
      8 S1          -5.3550     1.0850    16.7850 sy         1 45I       1.158600
      9 O6          -5.3800     2.1360    17.7980 o          1 45I      -0.571000
     10 N7          -6.8970     0.5730    16.7390 n8         1 45I      -1.027100
     11 O5          -4.5950    -0.1500    16.9580 o          1 45I      -0.571000
     12 C12         -5.4090     3.1260    14.9060 ca         1 45I       0.056000
     13 C11         -5.2200     3.6770    13.6200 ca         1 45I      -0.316500
     14 S13         -5.6620     5.4060    13.3620 sy         1 45I       1.166600
     15 O15         -6.1880     5.9990    14.5940 o          1 45I      -0.558500
     16 O14         -6.3630     5.5530    12.0860 o          1 45I      -0.558500
     17 N16         -4.1800     6.1100    13.1070 n7         1 45I      -0.861300
     18 C19         -3.1350     5.8920    14.1200 c3         1 45I       0.203800
     19 C20         -1.8020     6.5310    13.6750 c3         1 45I      -0.033100
     20 C21         -1.8590     8.0530    13.5780 ca         1 45I      -0.057300
     21 C26         -1.8710     8.8380    14.7490 ca         1 45I      -0.097500
     22 C25         -1.9180    10.2400    14.6640 ca         1 45I      -0.115000
     23 C24         -1.9510    10.8680    13.4070 ca         1 45I      -0.122000
     24 C23         -1.9380    10.0920    12.2360 ca         1 45I      -0.115000
     25 C22         -1.8920     8.6890    12.3210 ca         1 45I      -0.097500
     26 H9          -4.0570     0.8680    12.0350 ha         1 45I       0.128000
     27 H8          -4.4040    -0.0890    14.2810 ha         1 45I       0.110000
     28 H12         -5.7940     3.7440    15.7170 ha         1 45I       0.150000
     29 H7A         -6.7650    -0.3960    17.0190 hn         1 45I       0.472500
     30 H7B         -7.2470     0.9970    17.5950 hn         1 45I       0.472500
     31 H16         -3.9110     5.5820    12.2640 hn         1 45I       0.535000
     32 H191        -3.4340     6.3280    15.0830 h1         1 45I       0.045700
     33 H192        -2.9610     4.8200    14.2820 h1         1 45I       0.045700
     34 H201        -1.0280     6.2430    14.3960 hc         1 45I       0.051700
     35 H202        -1.4960     6.0920    12.7180 hc         1 45I       0.051700
     36 H26         -1.8440     8.3600    15.7260 ha         1 45I       0.116500
     37 H22         -1.8850     8.0970    11.4090 ha         1 45I       0.116500
     38 H25         -1.9270    10.8400    15.5710 ha         1 45I       0.103000
     39 H24         -1.9870    11.9530    13.3410 ha         1 45I       0.099000
     40 H23         -1.9650    10.5770    11.2630 ha         1 45I       0.103000
@<TRIPOS>BOND
     1     1     2 1   
     2     2     3 1   
     3     2     4 1   
     4     4     5 ar  
     5     4    13 ar  
     6     5     6 ar  
     7     5    26 1   
     8     6     7 ar  
     9     6    27 1   
    10     7     8 1   
    11     7    12 ar  
    12     8     9 2   
    13     8    10 1   
    14     8    11 2   
    15    10    29 1   
    16    10    30 1   
    17    12    13 ar  
    18    12    28 1   
    19    13    14 1   
    20    14    15 2   
    21    14    16 2   
    22    14    17 1   
    23    17    18 1   
    24    17    31 1   
    25    18    19 1   
    26    18    32 1   
    27    18    33 1   
    28    19    20 1   
    29    19    34 1   
    30    19    35 1   
    31    20    21 ar  
    32    20    25 ar  
    33    21    22 ar  
    34    21    36 1   
    35    22    23 ar  
    36    22    38 1   
    37    23    24 ar  
    38    23    39 1   
    39    24    25 ar  
    40    24    40 1   
    41    25    37 1   
@<TRIPOS>SUBSTRUCTURE
     1 45I         1 TEMP              0 ****  ****    0 ROOT
