@<TRIPOS>MOLECULE
45I
   40    41     1     0     0
SMALL
abcg2


@<TRIPOS>ATOM
      1 O18         -3.7810     4.6110    11.1950 o          1 45I      -0.689500
      2 C17         -4.6620     3.7130    11.2420 c          1 45I       0.711600
      3 O17         -5.3140     3.2400    10.2930 o          1 45I      -0.689500
      4 C10         -4.9170     3.0830    12.6130 ca         1 45I       0.019400
      5 C9          -4.6690     1.7140    12.7470 ca         1 45I      -0.136000
      6 C8          -4.8070     1.0690    13.9640 ca         1 45I       0.014000
      7 C7          -5.2320     1.7940    15.0730 ca         1 45I      -0.315500
      8 S1          -5.3090     1.0070    16.6590 sy         1 45I       1.158600
      9 O6          -5.8820     1.9550    17.5890 o          1 45I      -0.571000
     10 N7          -6.3000    -0.2720    16.3830 n8         1 45I      -1.027100
     11 O5          -4.0120     0.4430    16.9650 o          1 45I      -0.571000
     12 C12         -5.5180     3.1460    14.9720 ca         1 45I       0.056000
     13 C11         -5.3530     3.7820    13.7460 ca         1 45I      -0.316500
     14 S13         -5.6460     5.5410    13.6840 sy         1 45I       1.166600
     15 O15         -6.1550     5.9530    14.9720 o          1 45I      -0.558500
     16 O14         -6.4230     5.8300    12.5020 o          1 45I      -0.558500
     17 N16         -4.1740     6.2150    13.4780 n7         1 45I      -0.861300
     18 C19         -3.2190     6.1010    14.5980 c3         1 45I       0.203800
     19 C20         -1.8350     6.5660    14.1470 c3         1 45I      -0.033100
     20 C21         -1.8000     8.0010    13.6890 ca         1 45I      -0.057300
     21 C26         -1.8940     9.0430    14.6140 ca         1 45I      -0.097500
     22 C25         -1.8910    10.3690    14.1950 ca         1 45I      -0.115000
     23 C24         -1.7920    10.6740    12.8400 ca         1 45I      -0.122000
     24 C23         -1.6960     9.6440    11.9100 ca         1 45I      -0.115000
     25 C22         -1.7000     8.3180    12.3350 ca         1 45I      -0.097500
     26 H9          -4.3520     1.1530    11.8770 ha         1 45I       0.128000
     27 H8          -4.5900     0.0130    14.0500 ha         1 45I       0.110000
     28 H12         -5.8560     3.7020    15.8320 ha         1 45I       0.150000
     29 H7A         -6.0600    -1.0630    16.9720 hn         1 45I       0.472500
     30 H7B         -7.2850    -0.0330    16.4390 hn         1 45I       0.472500
     31 H16         -3.8030     5.8270    12.5960 hn         1 45I       0.535000
     32 H191        -3.5810     6.7160    15.4190 h1         1 45I       0.045700
     33 H192        -3.1450     5.0670    14.9530 h1         1 45I       0.045700
     34 H201        -1.1590     6.4250    14.9930 hc         1 45I       0.051700
     35 H202        -1.4860     5.9130    13.3440 hc         1 45I       0.051700
     36 H26         -1.9690     8.8140    15.6710 ha         1 45I       0.116500
     37 H22         -1.6280     7.5180    11.6070 ha         1 45I       0.116500
     38 H25         -1.9620    11.1650    14.9260 ha         1 45I       0.103000
     39 H24         -1.7880    11.7060    12.5130 ha         1 45I       0.099000
     40 H23         -1.6170     9.8700    10.8540 ha         1 45I       0.103000
@<TRIPOS>BOND
     1     1     2 1   
     2     2     3 1   
     3     2     4 1   
     4     4     5 ar  
     5     4    13 ar  
     6     5     6 ar  
     7     5    26 1   
     8     6     7 ar  
     9     6    27 1   
    10     7     8 1   
    11     7    12 ar  
    12     8     9 2   
    13     8    10 1   
    14     8    11 2   
    15    10    29 1   
    16    10    30 1   
    17    12    13 ar  
    18    12    28 1   
    19    13    14 1   
    20    14    15 2   
    21    14    16 2   
    22    14    17 1   
    23    17    18 1   
    24    17    31 1   
    25    18    19 1   
    26    18    32 1   
    27    18    33 1   
    28    19    20 1   
    29    19    34 1   
    30    19    35 1   
    31    20    21 ar  
    32    20    25 ar  
    33    21    22 ar  
    34    21    36 1   
    35    22    23 ar  
    36    22    38 1   
    37    23    24 ar  
    38    23    39 1   
    39    24    25 ar  
    40    24    40 1   
    41    25    37 1   
@<TRIPOS>SUBSTRUCTURE
     1 45I         1 TEMP              0 ****  ****    0 ROOT
