@<TRIPOS>MOLECULE
45K
   39    43     1     0     0
SMALL
No Charge or Current Charge


@<TRIPOS>ATOM
      1 N1           6.1490    -2.1770    -0.4150 nc         1 45K      -0.513100
      2 N2          -0.1080     0.7620     0.4320 nu         1 45K      -0.804000
      3 N3           3.6420     2.7230     0.1540 ns         1 45K      -0.388100
      4 OAA          1.3930     3.2180     0.4150 o          1 45K      -0.582000
      5 OAB         -7.5500     0.3410     0.4540 o          1 45K      -0.505000
      6 OAC         -6.6030    -0.2210    -1.8400 o          1 45K      -0.505000
      7 CAD          1.1530     0.1920     0.2610 c2         1 45K       0.156000
      8 CAE         -1.5830    -1.1720     0.6770 ca         1 45K      -0.151000
      9 CAF         -2.8780    -1.7210     0.6600 ca         1 45K      -0.040000
     10 CAG          6.4480     0.2710    -0.2960 ca         1 45K      -0.029000
     11 CAH          5.8650     1.5510    -0.1550 ca         1 45K      -0.137000
     12 CAI          5.1040    -3.0210    -0.3550 cd         1 45K       0.393100
     13 CAJ         -2.4960     1.0170     0.1440 ca         1 45K      -0.120000
     14 CAK         -5.4110    -1.3800     0.3380 c5         1 45K      -0.229100
     15 CAL         -5.0390     1.2700    -0.1580 c5         1 45K      -0.239100
     16 SAP          3.4700    -2.3440    -0.1390 ss         1 45K      -0.015200
     17 CAQ         -1.3850     0.1980     0.4150 ca         1 45K       0.307000
     18 CAR         -3.9770    -0.8930     0.3800 ca         1 45K      -0.106300
     19 CAS         -3.7880     0.4660     0.1250 ca         1 45K      -0.040300
     20 CAT          2.3130     2.4240     0.2750 c          1 45K       0.581200
     21 CAU          2.2820     0.9420     0.1890 cc         1 45K      -0.288400
     22 CAV          5.6350    -0.8890    -0.2810 ca         1 45K       0.062400
     23 CAW          4.4740     1.6180    -0.0030 ca         1 45K       0.061600
     24 CAX          4.2560    -0.7760    -0.1270 ca         1 45K      -0.138000
     25 CAY          3.6660     0.4910     0.0130 ca         1 45K      -0.035800
     26 SAZ         -6.4020     0.0190    -0.4040 s6         1 45K       1.062000
     27 H1           3.9820     3.6760     0.1720 hn         1 45K       0.340500
     28 H2           1.1930    -0.8950     0.1790 h4         1 45K       0.200000
     29 H3          -0.7400    -1.8170     0.9050 ha         1 45K       0.124000
     30 H4          -3.0270    -2.7800     0.8640 ha         1 45K       0.127000
     31 H5           7.5240     0.1750    -0.4160 ha         1 45K       0.135000
     32 H6           6.4750     2.4510    -0.1640 ha         1 45K       0.125000
     33 H7           5.2020    -4.0960    -0.4310 h5         1 45K       0.059800
     34 H8          -2.3580     2.0760    -0.0560 ha         1 45K       0.134000
     35 H9          -5.5560    -2.2570    -0.3030 h1         1 45K       0.114200
     36 H10         -5.8210    -1.5660     1.3370 h1         1 45K       0.114200
     37 H11         -5.3330     1.8980     0.6890 h1         1 45K       0.117200
     38 H12         -4.9760     1.8660    -1.0750 h1         1 45K       0.117200
     39 H14         -0.0960     1.7880     0.4330 hn         1 45K       0.535000
@<TRIPOS>BOND
     1     1    12 2   
     2     1    22 1   
     3     2     7 1   
     4     2    17 1   
     5     2    39 1   
     6     3    20 1   
     7     3    23 1   
     8     3    27 1   
     9     4    20 2   
    10     5    26 2   
    11     6    26 2   
    12     7    21 2   
    13     7    28 1   
    14     8     9 ar  
    15     8    17 ar  
    16     8    29 1   
    17     9    18 ar  
    18     9    30 1   
    19    10    11 ar  
    20    10    22 ar  
    21    10    31 1   
    22    11    23 ar  
    23    11    32 1   
    24    12    16 1   
    25    12    33 1   
    26    13    17 ar  
    27    13    19 ar  
    28    13    34 1   
    29    14    18 1   
    30    14    26 1   
    31    14    35 1   
    32    14    36 1   
    33    15    19 1   
    34    15    26 1   
    35    15    37 1   
    36    15    38 1   
    37    16    24 1   
    38    18    19 ar  
    39    20    21 1   
    40    21    25 1   
    41    22    24 ar  
    42    23    25 ar  
    43    24    25 ar  
@<TRIPOS>SUBSTRUCTURE
     1 45K         1 TEMP              0 ****  ****    0 ROOT
