@<TRIPOS>MOLECULE
45K
   39    43     1     0     0
SMALL
bcc


@<TRIPOS>ATOM
      1 N1           6.0060    -2.2230    -0.0890 nc         1 45K      -0.513100
      2 N2          -0.1510     0.8860     0.1130 nu         1 45K      -0.610400
      3 N3           3.6750     2.7400    -0.0360 ns         1 45K      -0.455100
      4 OAA          1.4300     3.2830     0.0350 o          1 45K      -0.657500
      5 OAB         -7.5600     0.1460     0.3380 o          1 45K      -0.575800
      6 OAC         -6.1780    -0.0910    -1.7430 o          1 45K      -0.575800
      7 CAD          1.0550     0.3120     0.0740 c2         1 45K       0.206000
      8 CAE         -1.5230    -1.1400     0.2420 ca         1 45K      -0.169000
      9 CAF         -2.7820    -1.7140     0.3070 ca         1 45K      -0.058000
     10 CAG          6.3900     0.2090    -0.1150 ca         1 45K      -0.047000
     11 CAH          5.8270     1.4730    -0.1030 ca         1 45K      -0.155000
     12 CAI          5.0250    -3.0450    -0.0510 cd         1 45K       0.393100
     13 CAJ         -2.5250     1.0540     0.1840 ca         1 45K      -0.138000
     14 CAK         -5.3280    -1.4020     0.4110 c5         1 45K      -0.118300
     15 CAL         -5.0680     1.2260     0.2850 c5         1 45K      -0.128300
     16 SAP          3.4320    -2.3410     0.0010 ss         1 45K      -0.142100
     17 CAQ         -1.3870     0.2480     0.1810 ca         1 45K       0.168600
     18 CAR         -3.9140    -0.9160     0.3290 ca         1 45K      -0.106300
     19 CAS         -3.7750     0.4710     0.2660 ca         1 45K      -0.040300
     20 CAT          2.3380     2.4570     0.0110 c          1 45K       0.723700
     21 CAU          2.2330     0.9960     0.0240 cc         1 45K      -0.288400
     22 CAV          5.5650    -0.9180    -0.0810 ca         1 45K       0.062400
     23 CAW          4.4410     1.5880    -0.0550 ca         1 45K       0.061600
     24 CAX          4.1650    -0.7760    -0.0330 ca         1 45K      -0.011100
     25 CAY          3.5820     0.4830    -0.0200 ca         1 45K      -0.035800
     26 SAZ         -6.2520    -0.0150    -0.2860 s6         1 45K       0.982000
     27 H1           4.0460     3.6780    -0.0510 hn         1 45K       0.340500
     28 H2           1.0690    -0.7710     0.0820 h4         1 45K       0.150000
     29 H3          -0.6630    -1.7950     0.2370 ha         1 45K       0.142000
     30 H4          -2.8700    -2.7920     0.3440 ha         1 45K       0.145000
     31 H5           7.4640     0.0860    -0.1510 ha         1 45K       0.153000
     32 H6           6.4550     2.3530    -0.1300 ha         1 45K       0.143000
     33 H7           5.1340    -4.1210    -0.0490 h5         1 45K       0.059800
     34 H8          -2.4290     2.1310     0.1250 ha         1 45K       0.152000
     35 H9          -5.5370    -2.3030    -0.1660 h1         1 45K       0.114200
     36 H10         -5.6660    -1.5430     1.4400 h1         1 45K       0.114200
     37 H11         -5.3610     1.5230     1.2950 h1         1 45K       0.117200
     38 H12         -5.1010     2.0930    -0.3740 h1         1 45K       0.117200
     39 H14         -0.1620     1.9010     0.0990 hn         1 45K       0.479800
@<TRIPOS>BOND
     1     1    12 2   
     2     1    22 1   
     3     2     7 1   
     4     2    17 1   
     5     2    39 1   
     6     3    20 1   
     7     3    23 1   
     8     3    27 1   
     9     4    20 2   
    10     5    26 2   
    11     6    26 2   
    12     7    21 2   
    13     7    28 1   
    14     8     9 ar  
    15     8    17 ar  
    16     8    29 1   
    17     9    18 ar  
    18     9    30 1   
    19    10    11 ar  
    20    10    22 ar  
    21    10    31 1   
    22    11    23 ar  
    23    11    32 1   
    24    12    16 1   
    25    12    33 1   
    26    13    17 ar  
    27    13    19 ar  
    28    13    34 1   
    29    14    18 1   
    30    14    26 1   
    31    14    35 1   
    32    14    36 1   
    33    15    19 1   
    34    15    26 1   
    35    15    37 1   
    36    15    38 1   
    37    16    24 1   
    38    18    19 ar  
    39    20    21 1   
    40    21    25 1   
    41    22    24 ar  
    42    23    25 ar  
    43    24    25 ar  
@<TRIPOS>SUBSTRUCTURE
     1 45K         1 TEMP              0 ****  ****    0 ROOT
