@<TRIPOS>MOLECULE
45L
   21    21     1     0     0
SMALL
abcg2


@<TRIPOS>ATOM
      1 C4           1.4740     1.8850    -0.2520 ca         1 45L      -0.116000
      2 C5           0.1590     1.4550    -0.3600 ca         1 45L      -0.095000
      3 C6           3.3340    -1.3900     0.2170 c3         1 45L      -0.047800
      4 N1          -3.8260     0.0270    -0.0770 n8         1 45L      -0.718200
      5 C7          -1.5220    -0.4440    -0.4120 c          1 45L       0.632700
      6 O           -1.7280    -1.5530    -0.8760 o          1 45L      -0.561100
      7 N           -2.4930     0.3840     0.0190 ns         1 45L      -0.409300
      8 C           -0.1320     0.0960    -0.2720 ca         1 45L      -0.151600
      9 C3           2.4960     0.9700    -0.0510 ca         1 45L      -0.092000
     10 C2           2.2260    -0.3950     0.0330 ca         1 45L      -0.081300
     11 C1           0.9060    -0.8150    -0.0890 ca         1 45L      -0.060000
     12 H1           1.7000     2.9410    -0.3290 ha         1 45L       0.115000
     13 H2          -0.6210     2.1850    -0.5360 ha         1 45L       0.110000
     14 H3           3.7210    -1.7240    -0.7480 hc         1 45L       0.045033
     15 H4           4.1690    -0.9620     0.7700 hc         1 45L       0.045033
     16 H5           2.9930    -2.2750     0.7530 hc         1 45L       0.045033
     17 H6          -4.2080    -0.0890     0.8530 hn         1 45L       0.396000
     18 H7          -4.3320     0.7820    -0.5210 hn         1 45L       0.396000
     19 H8          -2.2470     1.2220     0.5240 hn         1 45L       0.300500
     20 H9           3.5180     1.3200     0.0400 ha         1 45L       0.114000
     21 H10          0.6800    -1.8730    -0.0310 ha         1 45L       0.134000
@<TRIPOS>BOND
     1     1     2 ar  
     2     1     9 ar  
     3     1    12 1   
     4     2     8 ar  
     5     2    13 1   
     6     3    10 1   
     7     3    14 1   
     8     3    15 1   
     9     3    16 1   
    10     4     7 1   
    11     4    17 1   
    12     4    18 1   
    13     5     6 2   
    14     5     7 1   
    15     5     8 1   
    16     7    19 1   
    17     8    11 ar  
    18     9    10 ar  
    19     9    20 1   
    20    10    11 ar  
    21    11    21 1   
@<TRIPOS>SUBSTRUCTURE
     1 45L         1 TEMP              0 ****  ****    0 ROOT
