@<TRIPOS>MOLECULE
45L
   21    21     1     0     0
SMALL
No Charge or Current Charge


@<TRIPOS>ATOM
      1 C4           1.4720     1.8800    -0.0470 ca         1 45L      -0.116000
      2 C5           0.1480     1.4120    -0.0730 ca         1 45L      -0.095000
      3 C6           3.4560    -1.3930     0.0110 c3         1 45L      -0.047800
      4 N1          -4.0050     0.0910    -0.1570 n8         1 45L      -0.718200
      5 C7          -1.5380    -0.5300    -0.1000 c          1 45L       0.632700
      6 O           -1.7670    -1.7340    -0.0990 o          1 45L      -0.561100
      7 N           -2.5770     0.4090    -0.1270 ns         1 45L      -0.409300
      8 C           -0.1230     0.0210    -0.0710 ca         1 45L      -0.151600
      9 C3           2.5440     0.9760    -0.0200 ca         1 45L      -0.092000
     10 C2           2.2970    -0.4080    -0.0150 ca         1 45L      -0.081300
     11 C1           0.9700    -0.8770    -0.0430 ca         1 45L      -0.060000
     12 H1           1.6680     2.9510    -0.0500 ha         1 45L       0.115000
     13 H2          -0.6540     2.1450    -0.0940 ha         1 45L       0.110000
     14 H3           3.7260    -1.7060    -1.0040 hc         1 45L       0.045033
     15 H4           4.3480    -0.9530     0.4740 hc         1 45L       0.045033
     16 H5           3.2010    -2.2940     0.5830 hc         1 45L       0.045033
     17 H6          -4.4980     0.4890     0.6570 hn         1 45L       0.396000
     18 H7          -4.4620     0.4810    -0.9960 hn         1 45L       0.396000
     19 H8          -2.2920     1.3880    -0.1260 hn         1 45L       0.300500
     20 H9           3.5650     1.3510    -0.0020 ha         1 45L       0.114000
     21 H10          0.7900    -1.9510    -0.0440 ha         1 45L       0.134000
@<TRIPOS>BOND
     1     1     2 ar  
     2     1     9 ar  
     3     1    12 1   
     4     2     8 ar  
     5     2    13 1   
     6     3    10 1   
     7     3    14 1   
     8     3    15 1   
     9     3    16 1   
    10     4     7 1   
    11     4    17 1   
    12     4    18 1   
    13     5     6 2   
    14     5     7 1   
    15     5     8 1   
    16     7    19 1   
    17     8    11 ar  
    18     9    10 ar  
    19     9    20 1   
    20    10    11 ar  
    21    11    21 1   
@<TRIPOS>SUBSTRUCTURE
     1 45L         1 TEMP              0 ****  ****    0 ROOT
