@<TRIPOS>MOLECULE
45M
   28    29     1     0     0
SMALL
No Charge or Current Charge


@<TRIPOS>ATOM
      1 C4          27.2820     2.0140    60.5370 c5         1 45M      -0.164700
      2 C5          29.1710     7.3920    59.0360 ca         1 45M      -0.136600
      3 C6          28.5630     8.6230    59.3790 ca         1 45M      -0.070000
      4 N1          29.0750     3.6390    59.9510 nu         1 45M      -0.654400
      5 C7          28.9190     9.8110    58.7170 ca         1 45M      -0.093500
      6 C8          29.8870     9.7860    57.7030 ca         1 45M       0.007100
      7 N2          27.3520     3.1720    58.4430 n2         1 45M      -0.644900
      8 C9          30.5000     8.5760    57.3490 ca         1 45M      -0.093500
      9 C10         30.1480     7.3850    58.0080 ca         1 45M      -0.070000
     10 Br          30.3700    11.4030    56.8030 br         1 45M      -0.102100
     11 C           28.7610     6.1290    59.7740 c          1 45M       0.621700
     12 O           27.9170     6.1440    60.6640 o          1 45M      -0.554100
     13 N           29.3980     4.9440    59.3970 ns         1 45M      -0.331300
     14 C1          27.9020     2.9920    59.5860 c2         1 45M       0.577200
     15 C3          25.8670     1.9170    59.9310 c5         1 45M      -0.103400
     16 C2          26.1660     2.2610    58.4370 c5         1 45M       0.105800
     17 H1          27.8130     1.0560    60.5070 hc         1 45M       0.062700
     18 H2          27.8100     8.6650    60.1630 ha         1 45M       0.130000
     19 H3          29.4030     3.4930    60.9110 hn         1 45M       0.506000
     20 H4          28.4430    10.7500    58.9930 ha         1 45M       0.134500
     21 H6          31.2510     8.5580    56.5620 ha         1 45M       0.134500
     22 H7          30.6450     6.4670    57.7050 ha         1 45M       0.130000
     23 H8          30.0850     4.9880    58.6500 hn         1 45M       0.317500
     24 H9          25.1990     2.6660    60.3740 hc         1 45M       0.056200
     25 H10         25.3000     2.7460    57.9660 h1         1 45M       0.058700
     26 H11         25.4000     0.9340    60.0620 hc         1 45M       0.056200
     27 H12         26.3970     1.3560    57.8570 h1         1 45M       0.058700
     28 H13         27.2720     2.3760    61.5710 hc         1 45M       0.062700
@<TRIPOS>BOND
     1     1    14 1   
     2     1    15 1   
     3     1    17 1   
     4     1    28 1   
     5     2     3 ar  
     6     2     9 ar  
     7     2    11 1   
     8     3     5 ar  
     9     3    18 1   
    10     4    13 1   
    11     4    14 1   
    12     4    19 1   
    13     5     6 ar  
    14     5    20 1   
    15     6     8 ar  
    16     6    10 1   
    17     7    14 2   
    18     7    16 1   
    19     8     9 ar  
    20     8    21 1   
    21     9    22 1   
    22    11    12 2   
    23    11    13 1   
    24    13    23 1   
    25    15    16 1   
    26    15    24 1   
    27    15    26 1   
    28    16    25 1   
    29    16    27 1   
@<TRIPOS>SUBSTRUCTURE
     1 45M         1 TEMP              0 ****  ****    0 ROOT
