@<TRIPOS>MOLECULE
45M
   28    29     1     0     0
SMALL
abcg2


@<TRIPOS>ATOM
      1 C4          27.4380     1.8490    60.3040 c5         1 45M      -0.164700
      2 C5          29.2390     7.4410    59.1350 ca         1 45M      -0.136600
      3 C6          28.4500     8.5910    59.1120 ca         1 45M      -0.070000
      4 N1          28.7850     3.9380    60.2390 nu         1 45M      -0.654400
      5 C7          28.8020     9.6770    58.3240 ca         1 45M      -0.093500
      6 C8          29.9650     9.6060    57.5680 ca         1 45M       0.007100
      7 N2          26.9090     3.6620    58.8650 n2         1 45M      -0.644900
      8 C9          30.7770     8.4810    57.5850 ca         1 45M      -0.093500
      9 C10         30.4060     7.3970    58.3700 ca         1 45M      -0.070000
     10 BR          30.4620    11.0970    56.4780 br         1 45M      -0.102100
     11 C           28.8000     6.3060    60.0050 c          1 45M       0.621700
     12 O           28.1430     6.4840    61.0220 o          1 45M      -0.554100
     13 N           29.2030     5.0740    59.5800 ns         1 45M      -0.331300
     14 C1          27.7140     3.2290    59.7580 c2         1 45M       0.577200
     15 C3          26.0090     1.6160    59.7880 c5         1 45M      -0.103400
     16 C2          25.8940     2.6220    58.6220 c5         1 45M       0.105800
     17 H1          28.1570     1.1440    59.8760 hc         1 45M       0.062700
     18 H2          27.5510     8.6300    59.7110 ha         1 45M       0.130000
     19 H3          29.5120     3.4330    60.7230 hn         1 45M       0.506000
     20 H4          28.1800    10.5610    58.3000 ha         1 45M       0.134500
     21 H6          31.6870     8.4480    57.0030 ha         1 45M       0.134500
     22 H7          31.0520     6.5290    58.3940 ha         1 45M       0.130000
     23 H8          29.5080     4.9550    58.6230 hn         1 45M       0.317500
     24 H9          25.2880     1.8650    60.5680 hc         1 45M       0.056200
     25 H10         24.9020     3.0740    58.5560 h1         1 45M       0.058700
     26 H11         25.8310     0.5870    59.4790 hc         1 45M       0.056200
     27 H12         26.0960     2.1460    57.6570 h1         1 45M       0.058700
     28 H13         27.5350     1.8010    61.3890 hc         1 45M       0.062700
@<TRIPOS>BOND
     1     1    14 1   
     2     1    15 1   
     3     1    17 1   
     4     1    28 1   
     5     2     3 ar  
     6     2     9 ar  
     7     2    11 1   
     8     3     5 ar  
     9     3    18 1   
    10     4    13 1   
    11     4    14 1   
    12     4    19 1   
    13     5     6 ar  
    14     5    20 1   
    15     6     8 ar  
    16     6    10 1   
    17     7    14 2   
    18     7    16 1   
    19     8     9 ar  
    20     8    21 1   
    21     9    22 1   
    22    11    12 2   
    23    11    13 1   
    24    13    23 1   
    25    15    16 1   
    26    15    24 1   
    27    15    26 1   
    28    16    25 1   
    29    16    27 1   
@<TRIPOS>SUBSTRUCTURE
     1 45M         1 TEMP              0 ****  ****    0 ROOT
