@<TRIPOS>MOLECULE
45N
   33    35     1     0     0
SMALL
abcg2


@<TRIPOS>ATOM
      1 C4          -1.0800     0.5580     0.0360 ca         1 45N      -0.072000
      2 C5          -0.5300    -0.5510    -0.6320 ca         1 45N      -0.091300
      3 C6           0.9470    -0.5770    -0.9190 c3         1 45N       0.209100
      4 C7           3.1540    -0.3190     0.0670 c5         1 45N       0.166500
      5 C8           3.9260    -0.1210     1.3690 c5         1 45N      -0.081400
      6 C9           5.3390     0.2730     0.9240 c5         1 45N      -0.077900
      7 C10          5.1760     0.8740    -0.4930 c5         1 45N      -0.077900
      8 C11          3.6730     0.8310    -0.7930 c5         1 45N      -0.081400
      9 C12         -4.4860     0.9350     1.0080 c5         1 45N       0.373600
     10 O1          -4.5320    -0.2190     0.1810 os         1 45N      -0.345100
     11 C2          -3.2440    -0.4960    -0.1470 ca         1 45N       0.053100
     12 C1          -2.7330    -1.5910    -0.7940 ca         1 45N      -0.100000
     13 O           -3.1960     1.5080     0.8470 os         1 45N      -0.344100
     14 C3          -2.4320     0.5540     0.2570 ca         1 45N       0.046100
     15 C           -1.3500    -1.5980    -1.0260 ca         1 45N      -0.110000
     16 N            1.7200    -0.2960     0.2770 n7         1 45N      -0.860400
     17 H1          -0.4530     1.3790     0.3590 ha         1 45N       0.147000
     18 H2           1.2080    -1.5400    -1.3840 h1         1 45N       0.038200
     19 H3           1.1760     0.1910    -1.6630 h1         1 45N       0.038200
     20 H4           3.4830    -1.2680    -0.3940 h1         1 45N       0.019700
     21 H5           3.4530     0.6950     1.9240 hc         1 45N       0.049700
     22 H6           3.9100    -1.0040     2.0120 hc         1 45N       0.049700
     23 H7           5.7970     0.9770     1.6190 hc         1 45N       0.041200
     24 H8           5.9920    -0.6010     0.8960 hc         1 45N       0.041200
     25 H9           5.5710     1.8880    -0.5620 hc         1 45N       0.041200
     26 H10          5.7260     0.2780    -1.2240 hc         1 45N       0.041200
     27 H11          3.4660     0.7130    -1.8580 hc         1 45N       0.049700
     28 H12          3.1820     1.7530    -0.4640 hc         1 45N       0.049700
     29 H13         -5.2480     1.6470     0.6910 h2         1 45N       0.063200
     30 H14         -4.6390     0.6510     2.0540 h2         1 45N       0.063200
     31 H15         -3.3600    -2.4130    -1.1120 ha         1 45N       0.133000
     32 H16         -0.9120    -2.4540    -1.5240 ha         1 45N       0.116000
     33 H17          1.4850    -0.9910     0.9770 hn         1 45N       0.414000
@<TRIPOS>BOND
     1     1     2 ar  
     2     1    14 ar  
     3     1    17 1   
     4     2     3 1   
     5     2    15 ar  
     6     3    16 1   
     7     3    18 1   
     8     3    19 1   
     9     4     5 1   
    10     4     8 1   
    11     4    16 1   
    12     4    20 1   
    13     5     6 1   
    14     5    21 1   
    15     5    22 1   
    16     6     7 1   
    17     6    23 1   
    18     6    24 1   
    19     7     8 1   
    20     7    25 1   
    21     7    26 1   
    22     8    27 1   
    23     8    28 1   
    24     9    10 1   
    25     9    13 1   
    26     9    29 1   
    27     9    30 1   
    28    10    11 1   
    29    11    12 ar  
    30    11    14 ar  
    31    12    15 ar  
    32    12    31 1   
    33    13    14 1   
    34    15    32 1   
    35    16    33 1   
@<TRIPOS>SUBSTRUCTURE
     1 45N         1 TEMP              0 ****  ****    0 ROOT
