@<TRIPOS>MOLECULE
45N
   33    35     1     0     0
SMALL
No Charge or Current Charge


@<TRIPOS>ATOM
      1 C4          -1.2020     0.7110    -0.2350 ca         1 45N      -0.072000
      2 C5          -0.5420    -0.4720    -0.6430 ca         1 45N      -0.091300
      3 C6           0.9270    -0.4230    -1.0400 c3         1 45N       0.209100
      4 C7           3.2400    -0.3680    -0.0790 c5         1 45N       0.166500
      5 C8           3.9580    -0.3530     1.2890 c5         1 45N      -0.081400
      6 C9           5.4030     0.0060     0.8490 c5         1 45N      -0.077900
      7 C10          5.2110     1.0140    -0.3330 c5         1 45N      -0.077900
      8 C11          3.6790     1.0160    -0.6220 c5         1 45N      -0.081400
      9 C12         -4.6200     1.0060     0.8160 c5         1 45N       0.373600
     10 O1          -4.5340    -0.4180     0.4520 os         1 45N      -0.345100
     11 C2          -3.2360    -0.5550     0.0800 ca         1 45N       0.053100
     12 C1          -2.6190    -1.7460    -0.3200 ca         1 45N      -0.100000
     13 O           -3.3340     1.6630     0.5250 os         1 45N      -0.344100
     14 C3          -2.5540     0.6280     0.1210 ca         1 45N       0.046100
     15 C           -1.2560    -1.6970    -0.6830 ca         1 45N      -0.110000
     16 N            1.7790    -0.3730     0.1620 n7         1 45N      -0.860400
     17 H1          -0.6760     1.6610    -0.1950 ha         1 45N       0.147000
     18 H2           1.1690    -1.3080    -1.6440 h1         1 45N       0.038200
     19 H3           1.0940     0.4600    -1.6720 h1         1 45N       0.038200
     20 H4           3.5660    -1.2040    -0.7150 h1         1 45N       0.019700
     21 H5           3.5460     0.4050     1.9670 hc         1 45N       0.049700
     22 H6           3.9080    -1.3190     1.8030 hc         1 45N       0.049700
     23 H7           5.9870     0.4360     1.6720 hc         1 45N       0.041200
     24 H8           5.9410    -0.8870     0.5110 hc         1 45N       0.041200
     25 H9           5.5680     2.0190    -0.0760 hc         1 45N       0.041200
     26 H10          5.7810     0.6920    -1.2120 hc         1 45N       0.041200
     27 H11          3.4610     1.1390    -1.6890 hc         1 45N       0.049700
     28 H12          3.1820     1.8370    -0.0910 hc         1 45N       0.049700
     29 H13         -5.4170     1.4860     0.2360 h2         1 45N       0.063200
     30 H14         -4.8310     1.0910     1.8880 h2         1 45N       0.063200
     31 H15         -3.1760    -2.6790    -0.3490 ha         1 45N       0.133000
     32 H16         -0.7530    -2.6100    -0.9950 ha         1 45N       0.116000
     33 H17          1.5430    -1.1930     0.7310 hn         1 45N       0.414000
@<TRIPOS>BOND
     1     1     2 ar  
     2     1    14 ar  
     3     1    17 1   
     4     2     3 1   
     5     2    15 ar  
     6     3    16 1   
     7     3    18 1   
     8     3    19 1   
     9     4     5 1   
    10     4     8 1   
    11     4    16 1   
    12     4    20 1   
    13     5     6 1   
    14     5    21 1   
    15     5    22 1   
    16     6     7 1   
    17     6    23 1   
    18     6    24 1   
    19     7     8 1   
    20     7    25 1   
    21     7    26 1   
    22     8    27 1   
    23     8    28 1   
    24     9    10 1   
    25     9    13 1   
    26     9    29 1   
    27     9    30 1   
    28    10    11 1   
    29    11    12 ar  
    30    11    14 ar  
    31    12    15 ar  
    32    12    31 1   
    33    13    14 1   
    34    15    32 1   
    35    16    33 1   
@<TRIPOS>SUBSTRUCTURE
     1 45N         1 TEMP              0 ****  ****    0 ROOT
