@<TRIPOS>MOLECULE
45O
   43    44     1     0     0
SMALL
abcg2


@<TRIPOS>ATOM
      1 N4          -2.3250     1.8460     2.1670 nv         1 45O      -1.070900
      2 C10         -2.1190     1.0640     1.1030 ca         1 45O       0.427900
      3 N2          -3.1270     0.2980     0.6950 nb         1 45O      -0.359000
      4 C9          -2.8610    -0.4780    -0.3560 ca         1 45O       0.437900
      5 N5          -3.8350    -1.2900    -0.8000 nh         1 45O      -0.767300
      6 C12         -5.1560    -1.2550    -0.2120 c3         1 45O       0.216600
      7 C11         -3.7000    -2.0510    -2.0230 c3         1 45O       0.216600
      8 N1          -1.6730    -0.5100    -0.9860 nb         1 45O      -0.328000
      9 N3          -0.9040     1.1140     0.5360 nb         1 45O      -0.289000
     10 C8          -0.7530     0.3000    -0.4940 ca         1 45O       0.215300
     11 C7           0.5720     0.3140    -1.2120 c3         1 45O       0.124500
     12 N            1.7080     0.3620    -0.3230 n3         1 45O      -0.697600
     13 C4           1.8120    -0.8550     0.4620 c6         1 45O       0.169300
     14 C3           2.9600    -0.7940     1.4600 c6         1 45O      -0.063200
     15 C5           3.0500    -2.0880     2.2580 c3         1 45O      -0.086600
     16 C2           4.2620    -0.4870     0.7300 c6         1 45O      -0.070400
     17 C1           4.1360     0.7560    -0.1420 c6         1 45O      -0.063200
     18 C6           5.4010     1.0120    -0.9500 c3         1 45O      -0.086600
     19 C            2.9300     0.6200    -1.0630 c6         1 45O       0.169300
     20 H1          -1.6150     2.4920     2.4620 hn         1 45O       0.504500
     21 H2          -3.2360     1.9070     2.5870 hn         1 45O       0.504500
     22 H3          -5.7770    -0.4660    -0.6430 h1         1 45O       0.044867
     23 H4          -5.6450    -2.2100    -0.3980 h1         1 45O       0.044867
     24 H5          -5.1020    -1.1000     0.8620 h1         1 45O       0.044867
     25 H6          -2.6590    -2.1230    -2.3130 h1         1 45O       0.044867
     26 H7          -4.0940    -3.0570    -1.8730 h1         1 45O       0.044867
     27 H8          -4.2570    -1.5870    -2.8420 h1         1 45O       0.044867
     28 H9           0.6010    -0.5530    -1.8900 h1         1 45O       0.053700
     29 H10          0.5870     1.2060    -1.8480 h1         1 45O       0.053700
     30 H12          0.8740    -1.0100     1.0020 h1         1 45O       0.030700
     31 H13          1.9500    -1.7370    -0.1930 h1         1 45O       0.030700
     32 H14          2.7550     0.0300     2.1530 hc         1 45O       0.061700
     33 H15          3.2150    -2.9450     1.6010 hc         1 45O       0.032533
     34 H16          3.8770    -2.0510     2.9690 hc         1 45O       0.032533
     35 H17          2.1350    -2.2740     2.8230 hc         1 45O       0.032533
     36 H18          5.0780    -0.3620     1.4490 hc         1 45O       0.037200
     37 H19          4.5330    -1.3450     0.1000 hc         1 45O       0.037200
     38 H20          3.9580     1.6160     0.5140 hc         1 45O       0.061700
     39 H21          5.5910     0.1960    -1.6510 hc         1 45O       0.032533
     40 H22          5.3250     1.9340    -1.5300 hc         1 45O       0.032533
     41 H23          6.2730     1.1010    -0.3000 hc         1 45O       0.032533
     42 H24          3.1320    -0.1830    -1.7970 h1         1 45O       0.030700
     43 H25          2.8010     1.5420    -1.6380 h1         1 45O       0.030700
@<TRIPOS>BOND
     1     1     2 1   
     2     1    20 1   
     3     1    21 1   
     4     2     3 ar  
     5     2     9 ar  
     6     3     4 ar  
     7     4     5 1   
     8     4     8 ar  
     9     5     6 1   
    10     5     7 1   
    11     6    22 1   
    12     6    23 1   
    13     6    24 1   
    14     7    25 1   
    15     7    26 1   
    16     7    27 1   
    17     8    10 ar  
    18     9    10 ar  
    19    10    11 1   
    20    11    12 1   
    21    11    28 1   
    22    11    29 1   
    23    12    13 1   
    24    12    19 1   
    25    13    14 1   
    26    13    30 1   
    27    13    31 1   
    28    14    15 1   
    29    14    16 1   
    30    14    32 1   
    31    15    33 1   
    32    15    34 1   
    33    15    35 1   
    34    16    17 1   
    35    16    36 1   
    36    16    37 1   
    37    17    18 1   
    38    17    19 1   
    39    17    38 1   
    40    18    39 1   
    41    18    40 1   
    42    18    41 1   
    43    19    42 1   
    44    19    43 1   
@<TRIPOS>SUBSTRUCTURE
     1 45O         1 TEMP              0 ****  ****    0 ROOT
