@<TRIPOS>MOLECULE
45O
   43    44     1     0     0
SMALL
No Charge or Current Charge


@<TRIPOS>ATOM
      1 N4          -2.8560     2.5640     1.7120 nv         1 45O      -1.070900
      2 C10         -2.4190     1.6060     0.8680 ca         1 45O       0.427900
      3 N2          -3.2480     0.5820     0.6550 nb         1 45O      -0.359000
      4 C9          -2.7780    -0.3480    -0.1990 ca         1 45O       0.437900
      5 N5          -3.6020    -1.4670    -0.4740 nh         1 45O      -0.767300
      6 C12         -4.9450    -1.6090     0.1480 c3         1 45O       0.216600
      7 C11         -3.1530    -2.5490    -1.3890 c3         1 45O       0.216600
      8 N1          -1.5780    -0.2880    -0.8130 nb         1 45O      -0.328000
      9 N3          -1.2100     1.7830     0.3250 nb         1 45O      -0.289000
     10 C8          -0.8280     0.7960    -0.5140 ca         1 45O       0.215300
     11 C7           0.5490     0.9160    -1.1810 c3         1 45O       0.124500
     12 N            1.7100     0.5760    -0.3100 n3         1 45O      -0.697600
     13 C4           1.6690    -0.8270     0.1930 c6         1 45O       0.169300
     14 C3           2.8270    -1.1220     1.1840 c6         1 45O      -0.063200
     15 C5           2.7690    -2.5810     1.7090 c3         1 45O      -0.086600
     16 C2           4.1950    -0.8070     0.5280 c6         1 45O      -0.070400
     17 C1           4.2130     0.6440    -0.0170 c6         1 45O      -0.063200
     18 C6           5.5620     0.9750    -0.7100 c3         1 45O      -0.086600
     19 C            3.0100     0.8770    -0.9700 c6         1 45O       0.169300
     20 H1          -2.3730     3.4590     1.7100 hn         1 45O       0.504500
     21 H2          -3.8460     2.5820     1.9450 hn         1 45O       0.504500
     22 H3          -5.5840    -0.7560    -0.1160 h1         1 45O       0.044867
     23 H4          -5.4510    -2.5230    -0.1910 h1         1 45O       0.044867
     24 H5          -4.8580    -1.6600     1.2420 h1         1 45O       0.044867
     25 H6          -2.2240    -3.0040    -1.0200 h1         1 45O       0.044867
     26 H7          -3.9050    -3.3460    -1.4700 h1         1 45O       0.044867
     27 H8          -2.9760    -2.1520    -2.3970 h1         1 45O       0.044867
     28 H9           0.5590     0.2790    -2.0770 h1         1 45O       0.053700
     29 H10          0.6500     1.9500    -1.5390 h1         1 45O       0.053700
     30 H12          0.7180    -1.0200     0.7100 h1         1 45O       0.030700
     31 H13          1.7260    -1.5320    -0.6500 h1         1 45O       0.030700
     32 H14          2.7010    -0.4730     2.0620 hc         1 45O       0.061700
     33 H15          2.8820    -3.3040     0.8920 hc         1 45O       0.032533
     34 H16          3.5660    -2.7720     2.4380 hc         1 45O       0.032533
     35 H17          1.8120    -2.7850     2.2050 hc         1 45O       0.032533
     36 H18          5.0030    -0.9430     1.2610 hc         1 45O       0.037200
     37 H19          4.3870    -1.5150    -0.2900 hc         1 45O       0.037200
     38 H20          4.1210     1.3380     0.8290 hc         1 45O       0.061700
     39 H21          5.7350     0.3260    -1.5770 hc         1 45O       0.032533
     40 H22          5.5810     2.0140    -1.0610 hc         1 45O       0.032533
     41 H23          6.4040     0.8430    -0.0200 hc         1 45O       0.032533
     42 H24          3.1330     0.2500    -1.8660 h1         1 45O       0.030700
     43 H25          3.0270     1.9250    -1.3060 h1         1 45O       0.030700
@<TRIPOS>BOND
     1     1     2 1   
     2     1    20 1   
     3     1    21 1   
     4     2     3 ar  
     5     2     9 ar  
     6     3     4 ar  
     7     4     5 1   
     8     4     8 ar  
     9     5     6 1   
    10     5     7 1   
    11     6    22 1   
    12     6    23 1   
    13     6    24 1   
    14     7    25 1   
    15     7    26 1   
    16     7    27 1   
    17     8    10 ar  
    18     9    10 ar  
    19    10    11 1   
    20    11    12 1   
    21    11    28 1   
    22    11    29 1   
    23    12    13 1   
    24    12    19 1   
    25    13    14 1   
    26    13    30 1   
    27    13    31 1   
    28    14    15 1   
    29    14    16 1   
    30    14    32 1   
    31    15    33 1   
    32    15    34 1   
    33    15    35 1   
    34    16    17 1   
    35    16    36 1   
    36    16    37 1   
    37    17    18 1   
    38    17    19 1   
    39    17    38 1   
    40    18    39 1   
    41    18    40 1   
    42    18    41 1   
    43    19    42 1   
    44    19    43 1   
@<TRIPOS>SUBSTRUCTURE
     1 45O         1 TEMP              0 ****  ****    0 ROOT
