@<TRIPOS>MOLECULE
45P
   42    45     1     0     0
SMALL
abcg2


@<TRIPOS>ATOM
      1 N1          -2.3210    -0.7760     8.4000 nv         1 45P      -1.065900
      2 C2          -1.3820    -0.5960     7.4640 ca         1 45P       0.436900
      3 N3          -0.1030    -0.5550     7.9520 nb         1 45P      -0.287000
      4 C4           0.8870    -0.3930     7.1340 ca         1 45P       0.463300
      5 O5           2.1020    -0.3600     7.6410 oh         1 45P      -0.617300
      6 C6           0.6120    -0.2600     5.7480 ca         1 45P      -0.327000
      7 N7           1.3670    -0.0850     4.6710 nc         1 45P      -0.219400
      8 N8           0.4960    -0.0420     3.7060 na         1 45P       0.424000
      9 N9          -0.7790    -0.1730     4.0410 nc         1 45P      -0.256400
     10 C10         -0.7370    -0.3170     5.3620 ca         1 45P       0.025000
     11 N11         -1.7630    -0.4840     6.2030 nb         1 45P      -0.248000
     12 C12          0.8890     0.1350     2.3600 ca         1 45P      -0.003200
     13 C13          2.2360     0.2980     2.0530 ca         1 45P      -0.078000
     14 C14          2.6050     0.4660     0.7300 ca         1 45P      -0.111000
     15 C15          1.6500     0.4880    -0.2760 ca         1 45P      -0.082000
     16 C16          0.3050     0.3300     0.0430 ca         1 45P      -0.146600
     17 C17         -0.0760     0.1360     1.3660 ca         1 45P      -0.036000
     18 C18         -0.7740     0.3070    -0.9960 c          1 45P       0.613700
     19 O19         -1.7940    -0.3450    -0.8250 o          1 45P      -0.584100
     20 N20         -0.5370     1.0450    -2.0940 ns         1 45P      -0.504900
     21 C21         -1.4300     1.1180    -3.2240 c3         1 45P       0.144300
     22 C22         -0.9090     0.3740    -4.4300 ca         1 45P      -0.093300
     23 C23         -0.9260     0.9830    -5.6780 ca         1 45P      -0.093500
     24 C24         -0.4730     0.2840    -6.7870 ca         1 45P       0.124500
     25 CL1         -0.4930     1.0510    -8.3370 cl         1 45P      -0.189500
     26 C26          0.0040    -1.0120    -6.6860 ca         1 45P      -0.095000
     27 C27          0.0140    -1.5980    -5.4290 ca         1 45P       0.124500
     28 CL2          0.6020    -3.2180    -5.2720 cl         1 45P      -0.189500
     29 C29         -0.4330    -0.9270    -4.3040 ca         1 45P      -0.093500
     30 H30         -2.0710    -0.8050     9.3720 hn         1 45P       0.510500
     31 H31         -3.2940    -0.7700     8.1500 hn         1 45P       0.510500
     32 H32          2.7720    -0.2360     6.9560 ho         1 45P       0.499000
     33 H34          2.9860     0.2890     2.8300 ha         1 45P       0.143000
     34 H33          3.6510     0.5790     0.4820 ha         1 45P       0.126000
     35 H36          1.9740     0.6010    -1.3020 ha         1 45P       0.121000
     36 H35         -1.1180    -0.0060     1.6140 ha         1 45P       0.173000
     37 H37          0.2870     1.6230    -2.1290 hn         1 45P       0.318500
     38 H38         -1.5920     2.1650    -3.4800 h1         1 45P       0.071700
     39 H39         -2.3960     0.7100    -2.9300 h1         1 45P       0.071700
     40 H42         -1.2870     1.9980    -5.7850 ha         1 45P       0.137000
     41 H41          0.3570    -1.5470    -7.5560 ha         1 45P       0.146000
     42 H40         -0.4120    -1.4200    -3.3410 ha         1 45P       0.137000
@<TRIPOS>BOND
     1     1     2 1   
     2     1    30 1   
     3     1    31 1   
     4     2     3 ar  
     5     2    11 ar  
     6     3     4 ar  
     7     4     5 1   
     8     4     6 ar  
     9     5    32 1   
    10     6     7 2   
    11     6    10 ar  
    12     7     8 1   
    13     8     9 1   
    14     8    12 1   
    15     9    10 2   
    16    10    11 ar  
    17    12    13 ar  
    18    12    17 ar  
    19    13    14 ar  
    20    13    33 1   
    21    14    15 ar  
    22    14    34 1   
    23    15    16 ar  
    24    15    35 1   
    25    16    17 ar  
    26    16    18 1   
    27    17    36 1   
    28    18    19 2   
    29    18    20 1   
    30    20    21 1   
    31    20    37 1   
    32    21    22 1   
    33    21    38 1   
    34    21    39 1   
    35    22    23 ar  
    36    22    29 ar  
    37    23    24 ar  
    38    23    40 1   
    39    24    25 1   
    40    24    26 ar  
    41    26    27 ar  
    42    26    41 1   
    43    27    28 1   
    44    27    29 ar  
    45    29    42 1   
@<TRIPOS>SUBSTRUCTURE
     1 45P         1 TEMP              0 ****  ****    0 ROOT
