@<TRIPOS>MOLECULE
45P
   42    45     1     0     0
SMALL
No Charge or Current Charge


@<TRIPOS>ATOM
      1 N1          -1.7590    -0.8060     8.9740 nv         1 45P      -1.065900
      2 C2          -0.9840    -0.4240     7.9310 ca         1 45P       0.436900
      3 N3           0.0060     0.4350     8.2190 nb         1 45P      -0.287000
      4 C4           0.7640     0.8040     7.1750 ca         1 45P       0.463300
      5 O5           1.7830     1.6690     7.3850 oh         1 45P      -0.617300
      6 C6           0.5160     0.3110     5.8840 ca         1 45P      -0.327000
      7 N7           1.1930     0.5880     4.7150 nc         1 45P      -0.219400
      8 N8           0.4470    -0.2050     3.8570 na         1 45P       0.424000
      9 N9          -0.6140    -0.9370     4.3700 nc         1 45P      -0.256400
     10 C10         -0.5290    -0.5680     5.6940 ca         1 45P       0.025000
     11 N11         -1.3000    -0.9490     6.7310 nb         1 45P      -0.248000
     12 C12          0.7570    -0.2640     2.4960 ca         1 45P      -0.003200
     13 C13          2.0660    -0.5700     2.0770 ca         1 45P      -0.078000
     14 C14          2.3720    -0.6280     0.7080 ca         1 45P      -0.111000
     15 C15          1.3770    -0.3820    -0.2530 ca         1 45P      -0.082000
     16 C16          0.0540    -0.0720     0.1460 ca         1 45P      -0.146600
     17 C17         -0.2400    -0.0180     1.5290 ca         1 45P      -0.036000
     18 C18         -1.0510     0.2000    -0.8550 c          1 45P       0.613700
     19 O19         -2.1930     0.4690    -0.5070 o          1 45P      -0.584100
     20 N20         -0.7120     0.1330    -2.1870 ns         1 45P      -0.504900
     21 C21         -1.6460     0.3670    -3.2860 c3         1 45P       0.144300
     22 C22         -0.9510     0.2170    -4.6300 ca         1 45P      -0.093300
     23 C23         -0.3410     1.3300    -5.2440 ca         1 45P      -0.093500
     24 C24          0.3070     1.1880    -6.4820 ca         1 45P       0.124500
     25 Cl1          1.0640     2.5830    -7.2400 cl         1 45P      -0.189500
     26 C26          0.3530    -0.0630    -7.1170 ca         1 45P      -0.095000
     27 C27         -0.2500    -1.1750    -6.5080 ca         1 45P       0.124500
     28 Cl2         -0.1920    -2.7450    -7.2970 cl         1 45P      -0.189500
     29 C29         -0.8990    -1.0380    -5.2690 ca         1 45P      -0.093500
     30 H30         -1.7130    -0.2550     9.8290 hn         1 45P       0.510500
     31 H31         -2.6500    -1.2520     8.7730 hn         1 45P       0.510500
     32 H32          2.1890     1.7950     6.5020 ho         1 45P       0.499000
     33 H34          2.8470    -0.7650     2.8100 ha         1 45P       0.143000
     34 H33          3.3850    -0.8650     0.3900 ha         1 45P       0.126000
     35 H36          1.6550    -0.4360    -1.3030 ha         1 45P       0.121000
     36 H35         -1.2510     0.2210     1.8580 ha         1 45P       0.173000
     37 H37          0.2470    -0.0930    -2.4110 hn         1 45P       0.318500
     38 H38         -2.0650     1.3780    -3.1930 h1         1 45P       0.071700
     39 H39         -2.4740    -0.3510    -3.2130 h1         1 45P       0.071700
     40 H42         -0.3670     2.3050    -4.7610 ha         1 45P       0.137000
     41 H41          0.8540    -0.1710    -8.0740 ha         1 45P       0.146000
     42 H40         -1.3600    -1.9080    -4.8070 ha         1 45P       0.137000
@<TRIPOS>BOND
     1     1     2 1   
     2     1    30 1   
     3     1    31 1   
     4     2     3 ar  
     5     2    11 ar  
     6     3     4 ar  
     7     4     5 1   
     8     4     6 ar  
     9     5    32 1   
    10     6     7 2   
    11     6    10 ar  
    12     7     8 1   
    13     8     9 1   
    14     8    12 1   
    15     9    10 2   
    16    10    11 ar  
    17    12    13 ar  
    18    12    17 ar  
    19    13    14 ar  
    20    13    33 1   
    21    14    15 ar  
    22    14    34 1   
    23    15    16 ar  
    24    15    35 1   
    25    16    17 ar  
    26    16    18 1   
    27    17    36 1   
    28    18    19 2   
    29    18    20 1   
    30    20    21 1   
    31    20    37 1   
    32    21    22 1   
    33    21    38 1   
    34    21    39 1   
    35    22    23 ar  
    36    22    29 ar  
    37    23    24 ar  
    38    23    40 1   
    39    24    25 1   
    40    24    26 ar  
    41    26    27 ar  
    42    26    41 1   
    43    27    28 1   
    44    27    29 ar  
    45    29    42 1   
@<TRIPOS>SUBSTRUCTURE
     1 45P         1 TEMP              0 ****  ****    0 ROOT
