@<TRIPOS>MOLECULE
45Q
   58    61     1     0     0
SMALL
No Charge or Current Charge


@<TRIPOS>ATOM
      1 C10          2.2050    -0.7540     0.6250 cc         1 45Q      -0.001400
      2 C14          0.1150     0.6370     0.5530 c          1 45Q       0.627700
      3 C15         -1.3820     0.5510     0.7970 ca         1 45Q      -0.155600
      4 C17         -2.1820     1.7010     0.6000 ca         1 45Q      -0.072500
      5 N01          9.5310     1.5050    -1.0490 nv         1 45Q      -1.073000
      6 C02          7.2140     1.8310    -0.5880 ca         1 45Q      -0.187000
      7 C03          8.3080     0.9700    -0.7400 ca         1 45Q       0.297000
      8 C04          8.1370    -0.4200    -0.5680 ca         1 45Q      -0.147300
      9 C05          6.8590    -0.9240    -0.2480 ca         1 45Q      -0.044000
     10 C06          5.7470    -0.0630    -0.1050 ca         1 45Q      -0.164500
     11 C07          5.9430     1.3250    -0.2700 ca         1 45Q      -0.052000
     12 C08          4.4120    -0.5990     0.2500 cd         1 45Q       0.337500
     13 C09          3.1870     0.1090     0.2370 cd         1 45Q      -0.225000
     14 N11          2.8800    -1.9460     0.8540 na         1 45Q      -0.043200
     15 N12          4.2450    -1.8590     0.6220 nc         1 45Q      -0.526800
     16 N13          0.8390    -0.5270     0.7650 ns         1 45Q      -0.399100
     17 O16          0.6420     1.6800     0.1890 o          1 45Q      -0.561100
     18 C18         -3.5700     1.6600     0.8160 ca         1 45Q      -0.108500
     19 C19         -4.1940     0.4720     1.2320 ca         1 45Q      -0.057300
     20 C20         -3.4090    -0.6790     1.4300 ca         1 45Q      -0.108500
     21 C21         -2.0200    -0.6440     1.2160 ca         1 45Q      -0.072500
     22 C22         -5.7030     0.4350     1.4630 c3         1 45Q       0.208100
     23 N23         -6.4960     0.5650     0.2170 n3         1 45Q      -0.715600
     24 C24         -6.2360    -0.5300    -0.7710 c6         1 45Q       0.128300
     25 C25         -7.0770    -0.3620    -2.0800 c6         1 45Q       0.162800
     26 N26         -8.5470    -0.2530    -1.8140 n3         1 45Q      -0.712600
     27 C27         -8.7910     0.8560    -0.8370 c6         1 45Q       0.162800
     28 C28         -7.9630     0.6950     0.4800 c6         1 45Q       0.128300
     29 C29         -9.1660    -1.5380    -1.4090 c3         1 45Q       0.151100
     30 H1          -1.7310     2.6370     0.2770 ha         1 45Q       0.123000
     31 H2           9.6660     2.5140    -1.0190 hn         1 45Q       0.446500
     32 H3          10.3590     0.9150    -1.0240 hn         1 45Q       0.446500
     33 H4           7.3430     2.9030    -0.7140 ha         1 45Q       0.110000
     34 H5           6.7340    -1.9970    -0.1170 ha         1 45Q       0.123000
     35 H6           5.1190     2.0230    -0.1500 ha         1 45Q       0.115000
     36 H7           3.0600     1.1470    -0.0400 ha         1 45Q       0.168000
     37 H8           2.4550    -2.8200     1.1590 hn         1 45Q       0.365000
     38 H9           0.2690    -1.3060     1.0640 hn         1 45Q       0.320500
     39 H10         -4.1670     2.5550     0.6540 ha         1 45Q       0.126000
     40 H11         -3.8780    -1.6070     1.7500 ha         1 45Q       0.126000
     41 H12         -1.4590    -1.5600     1.3830 ha         1 45Q       0.123000
     42 H13         -5.9660    -0.5000     1.9780 h1         1 45Q       0.042200
     43 H14         -5.9570     1.2540     2.1490 h1         1 45Q       0.042200
     44 H16         -5.1720    -0.5500    -1.0490 h1         1 45Q       0.036450
     45 H17         -6.4650    -1.5080    -0.3220 h1         1 45Q       0.036450
     46 H18         -6.7270     0.5450    -2.5940 h1         1 45Q       0.059450
     47 H19         -6.8660    -1.2040    -2.7540 h1         1 45Q       0.059450
     48 H21         -8.5190     1.8190    -1.2950 h1         1 45Q       0.059450
     49 H22         -9.8600     0.9230    -0.5850 h1         1 45Q       0.059450
     50 H23         -8.3290    -0.1870     1.0270 h1         1 45Q       0.036450
     51 H24         -8.1550     1.5680     1.1210 h1         1 45Q       0.036450
     52 H25         -8.7460    -1.9100    -0.4660 h1         1 45Q       0.029700
     53 H26        -10.2500    -1.4180    -1.2760 h1         1 45Q       0.029700
     54 H27         -9.0050    -2.3030    -2.1800 h1         1 45Q       0.029700
     55 H28         10.0960    -1.1780     0.0110 hc         1 45Q       0.037367
     56 H29          8.9970    -2.4330    -0.5700 hc         1 45Q       0.037367
     57 H30          9.7480    -1.3260    -1.7220 hc         1 45Q       0.037367
     58 C30          9.3070    -1.3920    -0.7200 c3         1 45Q      -0.038800
@<TRIPOS>BOND
     1     1    13 2   
     2     1    14 1   
     3     1    16 1   
     4     2     3 1   
     5     2    16 1   
     6     2    17 2   
     7     3     4 ar  
     8     3    21 ar  
     9     4    18 ar  
    10     4    30 1   
    11     5     7 1   
    12     5    31 1   
    13     5    32 1   
    14     6     7 ar  
    15     6    11 ar  
    16     6    33 1   
    17     7     8 ar  
    18     8     9 ar  
    19     8    58 1   
    20     9    10 ar  
    21     9    34 1   
    22    10    11 ar  
    23    10    12 1   
    24    11    35 1   
    25    12    13 1   
    26    12    15 2   
    27    13    36 1   
    28    14    15 1   
    29    14    37 1   
    30    16    38 1   
    31    18    19 ar  
    32    18    39 1   
    33    19    20 ar  
    34    19    22 1   
    35    20    21 ar  
    36    20    40 1   
    37    21    41 1   
    38    22    23 1   
    39    22    42 1   
    40    22    43 1   
    41    23    24 1   
    42    23    28 1   
    43    24    25 1   
    44    24    44 1   
    45    24    45 1   
    46    25    26 1   
    47    25    46 1   
    48    25    47 1   
    49    26    27 1   
    50    26    29 1   
    51    27    28 1   
    52    27    48 1   
    53    27    49 1   
    54    28    50 1   
    55    28    51 1   
    56    29    52 1   
    57    29    53 1   
    58    29    54 1   
    59    55    58 1   
    60    56    58 1   
    61    57    58 1   
@<TRIPOS>SUBSTRUCTURE
     1 45Q         1 TEMP              0 ****  ****    0 ROOT
