@<TRIPOS>MOLECULE
45Q
   58    61     1     0     0
SMALL
bcc


@<TRIPOS>ATOM
      1 C10          2.1940    -0.6530     0.3340 cc         1 45Q       0.049300
      2 C14          0.0770     0.5430     0.3780 c          1 45Q       0.694700
      3 C15         -1.3780     0.3870     0.6510 ca         1 45Q      -0.155600
      4 C17         -2.2520     1.3190     0.0920 ca         1 45Q      -0.090500
      5 N01          9.6190     1.4730    -0.8680 nv         1 45Q      -0.824200
      6 C02          7.2570     1.8740    -0.5840 ca         1 45Q      -0.205000
      7 C03          8.3500     1.0030    -0.6050 ca         1 45Q       0.158600
      8 C04          8.1200    -0.3730    -0.4090 ca         1 45Q      -0.147300
      9 C05          6.8240    -0.8150    -0.2010 ca         1 45Q      -0.062000
     10 C06          5.7260     0.0480    -0.1810 ca         1 45Q      -0.164500
     11 C07          5.9710     1.4050    -0.3790 ca         1 45Q      -0.070000
     12 C08          4.3690    -0.4560     0.0410 cd         1 45Q       0.402800
     13 C09          3.1710     0.2920     0.1040 cd         1 45Q      -0.308300
     14 N11          2.8180    -1.8440     0.3890 na         1 45Q      -0.043600
     15 N12          4.1360    -1.7450     0.2150 nc         1 45Q      -0.526800
     16 N13          0.8260    -0.5860     0.5100 ns         1 45Q      -0.466100
     17 O16          0.5610     1.6100     0.0480 o          1 45Q      -0.561100
     18 C18         -3.6130     1.2330     0.3200 ca         1 45Q      -0.126500
     19 C19         -4.1380     0.2270     1.1290 ca         1 45Q      -0.057300
     20 C20         -3.2640    -0.6960     1.6920 ca         1 45Q      -0.126500
     21 C21         -1.8990    -0.6200     1.4600 ca         1 45Q      -0.090500
     22 C22         -5.6140     0.1700     1.4240 c3         1 45Q       0.208100
     23 N23         -6.4260     0.4220     0.2550 n3         1 45Q      -0.715600
     24 C24         -6.3390    -0.6650    -0.7060 c6         1 45Q       0.128300
     25 C25         -7.1710    -0.3470    -1.9430 c6         1 45Q       0.162800
     26 N26         -8.5600    -0.0390    -1.6500 n3         1 45Q      -0.712600
     27 C27         -8.6200     1.0050    -0.6420 c6         1 45Q       0.162800
     28 C28         -7.8090     0.6930     0.6100 c6         1 45Q       0.128300
     29 C29         -9.3540    -1.2050    -1.3170 c3         1 45Q       0.151100
     30 H1          -1.8640     2.1130    -0.5320 ha         1 45Q       0.141000
     31 H2           9.7510     2.4620    -0.7300 hn         1 45Q       0.391300
     32 H3          10.3830     0.9420    -0.4830 hn         1 45Q       0.391300
     33 H4           7.4190     2.9360    -0.7300 ha         1 45Q       0.128000
     34 H5           6.6630    -1.8760    -0.0500 ha         1 45Q       0.141000
     35 H6           5.1570     2.1180    -0.3710 ha         1 45Q       0.133000
     36 H7           3.0450     1.3530     0.0030 ha         1 45Q       0.186000
     37 H8           2.4010    -2.7490     0.5420 hn         1 45Q       0.314700
     38 H9           0.3540    -1.4590     0.6920 hn         1 45Q       0.320500
     39 H10         -4.2820     1.9500    -0.1390 ha         1 45Q       0.144000
     40 H11         -3.6520    -1.4860     2.3240 ha         1 45Q       0.144000
     41 H12         -1.2570    -1.3480     1.9400 ha         1 45Q       0.141000
     42 H13         -5.8550    -0.7960     1.8980 h1         1 45Q       0.042200
     43 H14         -5.8410     0.9400     2.1690 h1         1 45Q       0.042200
     44 H16         -5.2980    -0.8000    -1.0080 h1         1 45Q       0.036450
     45 H17         -6.6650    -1.6210    -0.2600 h1         1 45Q       0.036450
     46 H18         -6.7250     0.5160    -2.4490 h1         1 45Q       0.059450
     47 H19         -7.1260    -1.1860    -2.6410 h1         1 45Q       0.059450
     48 H21         -8.2360     1.9320    -1.0820 h1         1 45Q       0.059450
     49 H22         -9.6620     1.1870    -0.3700 h1         1 45Q       0.059450
     50 H23         -8.2630    -0.1500     1.1580 h1         1 45Q       0.036450
     51 H24         -7.8410     1.5560     1.2800 h1         1 45Q       0.036450
     52 H25         -9.0510    -1.7320    -0.4020 h1         1 45Q       0.029700
     53 H26        -10.3970    -0.9110    -1.1930 h1         1 45Q       0.029700
     54 H27         -9.3070    -1.9230    -2.1370 h1         1 45Q       0.029700
     55 H28          9.9950    -1.1330     0.3570 hc         1 45Q       0.037367
     56 H29          8.9210    -2.3610    -0.2960 hc         1 45Q       0.037367
     57 H30          9.8110    -1.2970    -1.3810 hc         1 45Q       0.037367
     58 C30          9.2680    -1.3380    -0.4340 c3         1 45Q      -0.038800
@<TRIPOS>BOND
     1     1    13 2   
     2     1    14 1   
     3     1    16 1   
     4     2     3 1   
     5     2    16 1   
     6     2    17 2   
     7     3     4 ar  
     8     3    21 ar  
     9     4    18 ar  
    10     4    30 1   
    11     5     7 1   
    12     5    31 1   
    13     5    32 1   
    14     6     7 ar  
    15     6    11 ar  
    16     6    33 1   
    17     7     8 ar  
    18     8     9 ar  
    19     8    58 1   
    20     9    10 ar  
    21     9    34 1   
    22    10    11 ar  
    23    10    12 1   
    24    11    35 1   
    25    12    13 1   
    26    12    15 2   
    27    13    36 1   
    28    14    15 1   
    29    14    37 1   
    30    16    38 1   
    31    18    19 ar  
    32    18    39 1   
    33    19    20 ar  
    34    19    22 1   
    35    20    21 ar  
    36    20    40 1   
    37    21    41 1   
    38    22    23 1   
    39    22    42 1   
    40    22    43 1   
    41    23    24 1   
    42    23    28 1   
    43    24    25 1   
    44    24    44 1   
    45    24    45 1   
    46    25    26 1   
    47    25    46 1   
    48    25    47 1   
    49    26    27 1   
    50    26    29 1   
    51    27    28 1   
    52    27    48 1   
    53    27    49 1   
    54    28    50 1   
    55    28    51 1   
    56    29    52 1   
    57    29    53 1   
    58    29    54 1   
    59    55    58 1   
    60    56    58 1   
    61    57    58 1   
@<TRIPOS>SUBSTRUCTURE
     1 45Q         1 TEMP              0 ****  ****    0 ROOT
