@<TRIPOS>MOLECULE
45R
   50    53     1     0     0
SMALL
No Charge or Current Charge


@<TRIPOS>ATOM
      1 C1           3.0830     3.6380     0.7750 c3         1 45R       0.145900
      2 O2           2.1610     2.5680     0.4990 os         1 45R      -0.330100
      3 C3           2.5660     1.2840     0.1810 ca         1 45R       0.207100
      4 C4           3.9390     0.9480     0.1440 ca         1 45R      -0.210000
      5 C5           4.3650    -0.3620    -0.1400 ca         1 45R       0.103000
      6 C6           3.3880    -1.3430    -0.3870 ca         1 45R      -0.162000
      7 C7           2.0230    -1.0260    -0.3540 ca         1 45R      -0.047000
      8 C8           1.5880     0.2920    -0.0720 ca         1 45R      -0.226600
      9 C9           0.1030     0.6160    -0.0530 c          1 45R       0.643700
     10 O10         -0.3290     1.7400    -0.2750 o          1 45R      -0.555100
     11 N11         -0.7280    -0.4750     0.1680 ns         1 45R      -0.150000
     12 C12         -2.1410    -0.6020     0.2610 ca         1 45R       0.026000
     13 C13         -2.6770    -1.8990     0.2730 ca         1 45R      -0.156000
     14 C14         -4.0620    -2.1010     0.3670 ca         1 45R      -0.053000
     15 C15         -4.9430    -1.0060     0.4560 ca         1 45R      -0.152300
     16 C16         -6.4440    -1.2720     0.5570 c3         1 45R      -0.038100
     17 C17         -7.2320    -0.7450    -0.6560 c3         1 45R       0.101600
     18 N18         -7.4670     0.7650    -0.5950 ny         1 45R      -0.817000
     19 C19         -6.2540     1.6960    -0.6530 c3         1 45R       0.101600
     20 C20         -5.3240     1.5310     0.5610 c3         1 45R      -0.049100
     21 C21         -4.4170     0.3060     0.4550 ca         1 45R      -0.072300
     22 C22         -3.0220     0.4970     0.3600 ca         1 45R      -0.121000
     23 C23          5.8010    -0.6750    -0.1710 cc         1 45R      -0.186000
     24 C24          6.9120     0.1580     0.0460 cc         1 45R       0.261900
     25 N25          8.0700    -0.4620    -0.0610 nd         1 45R      -0.507800
     26 N26          7.6870    -1.7710    -0.3640 na         1 45R       0.007800
     27 C27          6.2940    -1.9210    -0.4360 cd         1 45R      -0.140000
     28 HN18        -8.1200     1.0270    -1.3660 hn         1 45R       0.496500
     29 HN1A        -8.0360     0.9920     0.2490 hn         1 45R       0.496500
     30 HN26         8.3770    -2.5070    -0.5100 hn         1 45R       0.380000
     31 H1           3.7320     3.8270    -0.0900 h1         1 45R       0.048700
     32 H1A          2.5350     4.5630     0.9950 h1         1 45R       0.048700
     33 H1B          3.7100     3.4010     1.6440 h1         1 45R       0.048700
     34 H4           4.6910     1.7020     0.3410 ha         1 45R       0.129000
     35 H6           3.6740    -2.3660    -0.6140 ha         1 45R       0.119000
     36 H7           1.3130    -1.8200    -0.5740 ha         1 45R       0.111000
     37 HN11        -0.2340    -1.3460     0.3070 hn         1 45R       0.165000
     38 H13         -2.0170    -2.7620     0.2040 ha         1 45R       0.132000
     39 H14         -4.4480    -3.1190     0.3700 ha         1 45R       0.122000
     40 H16         -6.6300    -2.3500     0.6280 hc         1 45R       0.079700
     41 H16A        -6.8550    -0.8430     1.4790 hc         1 45R       0.079700
     42 H17         -6.6920    -0.9930    -1.5740 hx         1 45R       0.097200
     43 H17A        -8.2050    -1.2460    -0.6850 hx         1 45R       0.097200
     44 H19         -5.6910     1.5040    -1.5710 hx         1 45R       0.098700
     45 H19A        -6.6130     2.7300    -0.6810 hx         1 45R       0.098700
     46 H20         -4.7190     2.4420     0.6400 hc         1 45R       0.085200
     47 H20A        -5.9200     1.4950     1.4810 hc         1 45R       0.085200
     48 H22         -2.6350     1.5110     0.3760 ha         1 45R       0.156000
     49 H24          6.9120     1.2140     0.2820 h4         1 45R       0.041100
     50 H27          5.8140    -2.8670    -0.6610 h4         1 45R       0.158000
@<TRIPOS>BOND
     1     1     2 1   
     2     1    31 1   
     3     1    32 1   
     4     1    33 1   
     5     2     3 1   
     6     3     4 ar  
     7     3     8 ar  
     8     4     5 ar  
     9     4    34 1   
    10     5     6 ar  
    11     5    23 1   
    12     6     7 ar  
    13     6    35 1   
    14     7     8 ar  
    15     7    36 1   
    16     8     9 1   
    17     9    10 2   
    18     9    11 1   
    19    11    12 1   
    20    11    37 1   
    21    12    13 ar  
    22    12    22 ar  
    23    13    14 ar  
    24    13    38 1   
    25    14    15 ar  
    26    14    39 1   
    27    15    16 1   
    28    15    21 ar  
    29    16    17 1   
    30    16    40 1   
    31    16    41 1   
    32    17    18 1   
    33    17    42 1   
    34    17    43 1   
    35    18    19 1   
    36    18    28 1   
    37    18    29 1   
    38    19    20 1   
    39    19    44 1   
    40    19    45 1   
    41    20    21 1   
    42    20    46 1   
    43    20    47 1   
    44    21    22 ar  
    45    22    48 1   
    46    23    24 1   
    47    23    27 2   
    48    24    25 2   
    49    24    49 1   
    50    25    26 1   
    51    26    27 1   
    52    26    30 1   
    53    27    50 1   
@<TRIPOS>SUBSTRUCTURE
     1 45R         1 TEMP              0 ****  ****    0 ROOT
