@<TRIPOS>MOLECULE
45R
   50    53     1     0     0
SMALL
abcg2


@<TRIPOS>ATOM
      1 C1           3.0490     2.9360     2.0260 c3         1 45R       0.145900
      2 O2           2.0980     2.1510     1.3300 os         1 45R      -0.330100
      3 C3           2.5250     1.1400     0.5620 ca         1 45R       0.207100
      4 C4           3.8650     0.8090     0.3980 ca         1 45R      -0.210000
      5 C5           4.2510    -0.2730    -0.3970 ca         1 45R       0.103000
      6 C6           3.2640    -1.0380    -1.0170 ca         1 45R      -0.162000
      7 C7           1.9290    -0.7190    -0.8390 ca         1 45R      -0.047000
      8 C8           1.5360     0.3670    -0.0670 ca         1 45R      -0.226600
      9 C9           0.0940     0.7340     0.0380 c          1 45R       0.643700
     10 O10         -0.3160     1.8560    -0.1930 o          1 45R      -0.555100
     11 N11         -0.6990    -0.3130     0.3890 ns         1 45R      -0.150000
     12 C12         -2.0900    -0.3620     0.5210 ca         1 45R       0.026000
     13 C13         -2.6260    -1.4840     1.1490 ca         1 45R      -0.156000
     14 C14         -3.9950    -1.6130     1.2960 ca         1 45R      -0.053000
     15 C15         -4.8700    -0.6390     0.8300 ca         1 45R      -0.152300
     16 C16         -6.3540    -0.8120     1.0010 c3         1 45R      -0.038100
     17 C17         -7.1330    -0.9440    -0.2960 c3         1 45R       0.101600
     18 N18         -7.3600     0.3610    -0.9790 ny         1 45R      -0.817000
     19 C19         -6.1580     1.0900    -1.4690 c3         1 45R       0.101600
     20 C20         -5.2380     1.5540    -0.3500 c3         1 45R      -0.049100
     21 C21         -4.3350     0.4830     0.1960 ca         1 45R      -0.072300
     22 C22         -2.9590     0.6200     0.0450 ca         1 45R      -0.121000
     23 C23          5.6650    -0.5910    -0.5640 cc         1 45R      -0.186000
     24 C24          6.7920     0.1600    -0.1610 cc         1 45R       0.261900
     25 N25          7.9200    -0.4420    -0.4810 nd         1 45R      -0.507800
     26 N26          7.5470    -1.5670    -1.0800 na         1 45R       0.007800
     27 C27          6.2200    -1.7100    -1.1600 cd         1 45R      -0.140000
     28 HN18        -7.9780     0.1970    -1.7750 hn         1 45R       0.496500
     29 HN1A        -7.8910     0.9750    -0.3590 hn         1 45R       0.496500
     30 HN26         8.2450    -2.2130    -1.4140 hn         1 45R       0.380000
     31 H1           3.7380     3.4410     1.3450 h1         1 45R       0.048700
     32 H1A          2.4840     3.6860     2.5730 h1         1 45R       0.048700
     33 H1B          3.6260     2.3400     2.7380 h1         1 45R       0.048700
     34 H4           4.6270     1.3870     0.9020 ha         1 45R       0.129000
     35 H6           3.5270    -1.8780    -1.6450 ha         1 45R       0.119000
     36 H7           1.1770    -1.3190    -1.3380 ha         1 45R       0.111000
     37 HN11        -0.2180    -1.1550     0.6700 hn         1 45R       0.165000
     38 H13         -1.9720    -2.2630     1.5240 ha         1 45R       0.132000
     39 H14         -4.3890    -2.4970     1.7840 ha         1 45R       0.122000
     40 H16         -6.5420    -1.7260     1.5660 hc         1 45R       0.079700
     41 H16A        -6.7810    -0.0030     1.6020 hc         1 45R       0.079700
     42 H17         -6.6280    -1.5940    -1.0090 hx         1 45R       0.097200
     43 H17A        -8.1240    -1.3490    -0.1040 hx         1 45R       0.097200
     44 H19         -5.6460     0.4320    -2.1690 hx         1 45R       0.098700
     45 H19A        -6.5410     1.9460    -2.0200 hx         1 45R       0.098700
     46 H20         -4.6340     2.3620    -0.7630 hc         1 45R       0.085200
     47 H20A        -5.8330     2.0080     0.4490 hc         1 45R       0.085200
     48 H22         -2.5770     1.4980    -0.4520 ha         1 45R       0.156000
     49 H24          6.8180     1.1160     0.3410 h4         1 45R       0.041100
     50 H27          5.7730    -2.5780    -1.6170 h4         1 45R       0.158000
@<TRIPOS>BOND
     1     1     2 1   
     2     1    31 1   
     3     1    32 1   
     4     1    33 1   
     5     2     3 1   
     6     3     4 ar  
     7     3     8 ar  
     8     4     5 ar  
     9     4    34 1   
    10     5     6 ar  
    11     5    23 1   
    12     6     7 ar  
    13     6    35 1   
    14     7     8 ar  
    15     7    36 1   
    16     8     9 1   
    17     9    10 2   
    18     9    11 1   
    19    11    12 1   
    20    11    37 1   
    21    12    13 ar  
    22    12    22 ar  
    23    13    14 ar  
    24    13    38 1   
    25    14    15 ar  
    26    14    39 1   
    27    15    16 1   
    28    15    21 ar  
    29    16    17 1   
    30    16    40 1   
    31    16    41 1   
    32    17    18 1   
    33    17    42 1   
    34    17    43 1   
    35    18    19 1   
    36    18    28 1   
    37    18    29 1   
    38    19    20 1   
    39    19    44 1   
    40    19    45 1   
    41    20    21 1   
    42    20    46 1   
    43    20    47 1   
    44    21    22 ar  
    45    22    48 1   
    46    23    24 1   
    47    23    27 2   
    48    24    25 2   
    49    24    49 1   
    50    25    26 1   
    51    26    27 1   
    52    26    30 1   
    53    27    50 1   
@<TRIPOS>SUBSTRUCTURE
     1 45R         1 TEMP              0 ****  ****    0 ROOT
