@<TRIPOS>MOLECULE
45U
   55    57     1     0     0
SMALL
bcc


@<TRIPOS>ATOM
      1 O32          1.9340    -0.6840     0.5540 o          1 45U      -0.571100
      2 C14          2.5240     0.3620     0.3360 c          1 45U       0.679100
      3 C5           4.0230     0.4190     0.1100 c3         1 45U       0.063400
      4 O21          4.5540    -0.8560     0.2910 os         1 45U      -0.371600
      5 C44          5.9000    -0.9630    -0.1130 c5         1 45U       0.138100
      6 C49          6.3560    -2.4220    -0.0360 c5         1 45U      -0.095900
      7 C48          7.8750    -2.3670     0.2330 c5         1 45U      -0.078900
      8 C47          8.2270    -0.8720     0.3290 c5         1 45U      -0.078900
      9 C45          6.9170    -0.2070     0.7410 c5         1 45U      -0.095900
     10 N1           1.8900     1.5450     0.2810 n          1 45U      -0.474800
     11 C1           0.4530     1.6110     0.4170 c5         1 45U       0.032700
     12 C7          -0.2310     0.9550    -0.7800 c          1 45U       0.658100
     13 O22          0.3060     0.8640    -1.8720 o          1 45U      -0.595100
     14 C2           0.1750     3.1200     0.4560 c5         1 45U      -0.084400
     15 C3           1.2990     3.7120    -0.3870 c5         1 45U      -0.093400
     16 C4           2.4960     2.8330    -0.0420 c5         1 45U       0.110000
     17 N23         -1.4830     0.5390    -0.5450 ns         1 45U      -0.573900
     18 C24         -2.3220    -0.0210    -1.5890 c3         1 45U       0.152300
     19 C25         -3.6860    -0.3270    -1.0400 ca         1 45U      -0.102300
     20 C30         -4.7270     0.5840    -1.1760 ca         1 45U      -0.123500
     21 C29         -5.9800     0.3160    -0.6430 ca         1 45U      -0.100500
     22 C28         -6.2180    -0.8730     0.0430 ca         1 45U      -0.136900
     23 C21         -7.5520    -1.1990     0.6190 ce         1 45U       0.657800
     24 N47         -7.8530    -2.4270     0.8040 n2         1 45U      -0.823100
     25 N46         -8.3660    -0.1280     0.8550 nv         1 45U      -0.963800
     26 C27         -5.1750    -1.7890     0.1740 ca         1 45U      -0.100500
     27 C26         -3.9260    -1.5170    -0.3570 ca         1 45U      -0.123500
     28 H5           4.2110     0.7920    -0.9090 h1         1 45U       0.037200
     29 H5A          4.4680     1.1570     0.7920 h1         1 45U       0.037200
     30 H44          5.9960    -0.6060    -1.1510 h1         1 45U       0.031700
     31 H49          5.8360    -2.9160     0.7880 hc         1 45U       0.053950
     32 H49A         6.1080    -2.9710    -0.9450 hc         1 45U       0.053950
     33 H48          8.1100    -2.8690     1.1720 hc         1 45U       0.042950
     34 H48A         8.4520    -2.8690    -0.5430 hc         1 45U       0.042950
     35 H47          9.0440    -0.6730     1.0220 hc         1 45U       0.042950
     36 H47A         8.5360    -0.4910    -0.6480 hc         1 45U       0.042950
     37 H45          6.9140     0.8720     0.5760 hc         1 45U       0.053950
     38 H45A         6.7130    -0.3860     1.8020 hc         1 45U       0.053950
     39 H1           0.1230     1.1260     1.3400 h1         1 45U       0.078700
     40 H2          -0.8210     3.3720     0.0910 hc         1 45U       0.056700
     41 H2A          0.2460     3.4680     1.4880 hc         1 45U       0.056700
     42 H3           1.0670     3.6330    -1.4490 hc         1 45U       0.062200
     43 H3A          1.4870     4.7610    -0.1630 hc         1 45U       0.062200
     44 H4           3.0420     3.2300     0.8190 h1         1 45U       0.045700
     45 H4A          3.1960     2.7520    -0.8740 h1         1 45U       0.045700
     46 HN23        -1.8690     0.6360     0.3810 hn         1 45U       0.317500
     47 H24         -2.4010     0.6850    -2.4190 h1         1 45U       0.060200
     48 H24A        -1.8610    -0.9300    -1.9840 h1         1 45U       0.060200
     49 H30         -4.5660     1.5100    -1.7140 ha         1 45U       0.139000
     50 H29         -6.7720     1.0370    -0.7930 ha         1 45U       0.147500
     51 HN47        -8.7710    -2.5200     1.2280 hn         1 45U       0.372400
     52 HN46        -7.9410     0.7610     1.0610 hn         1 45U       0.404800
     53 HN4A        -9.2080    -0.2990     1.3810 hn         1 45U       0.404800
     54 H27         -5.3500    -2.7190     0.6990 ha         1 45U       0.147500
     55 H26         -3.1280    -2.2410    -0.2410 ha         1 45U       0.139000
@<TRIPOS>BOND
     1     1     2 2   
     2     2     3 1   
     3     2    10 1   
     4     3     4 1   
     5     3    28 1   
     6     3    29 1   
     7     4     5 1   
     8     5     6 1   
     9     5     9 1   
    10     5    30 1   
    11     6     7 1   
    12     6    31 1   
    13     6    32 1   
    14     7     8 1   
    15     7    33 1   
    16     7    34 1   
    17     8     9 1   
    18     8    35 1   
    19     8    36 1   
    20     9    37 1   
    21     9    38 1   
    22    10    11 1   
    23    10    16 1   
    24    11    12 1   
    25    11    14 1   
    26    11    39 1   
    27    12    13 2   
    28    12    17 1   
    29    14    15 1   
    30    14    40 1   
    31    14    41 1   
    32    15    16 1   
    33    15    42 1   
    34    15    43 1   
    35    16    44 1   
    36    16    45 1   
    37    17    18 1   
    38    17    46 1   
    39    18    19 1   
    40    18    47 1   
    41    18    48 1   
    42    19    20 ar  
    43    19    27 ar  
    44    20    21 ar  
    45    20    49 1   
    46    21    22 ar  
    47    21    50 1   
    48    22    23 1   
    49    22    26 ar  
    50    23    24 2   
    51    23    25 1   
    52    24    51 1   
    53    25    52 1   
    54    25    53 1   
    55    26    27 ar  
    56    26    54 1   
    57    27    55 1   
@<TRIPOS>SUBSTRUCTURE
     1 45U         1 TEMP              0 ****  ****    0 ROOT
