@<TRIPOS>MOLECULE
45U
   55    57     1     0     0
SMALL
No Charge or Current Charge


@<TRIPOS>ATOM
      1 O32          2.3120    -0.9690     0.0380 o          1 45U      -0.571100
      2 C14          2.7810     0.1590    -0.0920 c          1 45U       0.612100
      3 C5           4.3030     0.4120    -0.2940 c3         1 45U       0.086600
      4 O21          5.0900    -0.8070    -0.2700 os         1 45U      -0.418000
      5 C44          6.5150    -0.6800    -0.4830 c5         1 45U       0.161300
      6 C49          7.1150    -2.1230    -0.5100 c5         1 45U      -0.095900
      7 C48          7.7670    -2.2820     0.8880 c5         1 45U      -0.078900
      8 C47          8.3870    -0.8780     1.0730 c5         1 45U      -0.078900
      9 C45          7.1550     0.0110     0.7680 c5         1 45U      -0.095900
     10 N1           1.9290     1.2850    -0.0520 n          1 45U      -0.407800
     11 C1           0.4560     1.1690     0.1360 c5         1 45U       0.032700
     12 C7          -0.3160     0.7030    -1.1430 c          1 45U       0.591100
     13 O22          0.1150     0.6110    -2.2860 o          1 45U      -0.595100
     14 C2           0.0840     2.6450     0.4770 c5         1 45U      -0.084400
     15 C3           1.0750     3.4490    -0.4020 c5         1 45U      -0.093400
     16 C4           2.4020     2.6820    -0.1710 c5         1 45U       0.110000
     17 N23         -1.6050     0.3590    -0.8000 ns         1 45U      -0.506900
     18 C24         -2.6030    -0.1250    -1.7480 c3         1 45U       0.152300
     19 C25         -3.9470    -0.3270    -1.0670 ca         1 45U      -0.102300
     20 C30         -4.8610     0.7360    -0.9700 ca         1 45U      -0.105500
     21 C29         -6.1030     0.5540    -0.3360 ca         1 45U      -0.082500
     22 C28         -6.4510    -0.6970     0.2290 ca         1 45U      -0.136900
     23 C21         -7.7870    -0.9180     0.8790 ce         1 45U       0.657800
     24 N47         -8.2860    -2.0690     1.0750 n2         1 45U      -0.823100
     25 N46         -8.4430     0.1560     1.3710 nv         1 45U      -1.074200
     26 C27         -5.5310    -1.7650     0.1070 ca         1 45U      -0.082500
     27 C26         -4.2900    -1.5790    -0.5260 ca         1 45U      -0.105500
     28 H5           4.4280     0.9230    -1.2570 h1         1 45U       0.037200
     29 H5A          4.6290     1.1000     0.4950 h1         1 45U       0.037200
     30 H44          6.7070    -0.1410    -1.4210 h1         1 45U       0.031700
     31 H49          6.3630    -2.8950    -0.7080 hc         1 45U       0.053950
     32 H49A         7.8690    -2.2060    -1.3020 hc         1 45U       0.053950
     33 H48          7.0220    -2.5050     1.6630 hc         1 45U       0.042950
     34 H48A         8.5180    -3.0800     0.9110 hc         1 45U       0.042950
     35 H47          8.7760    -0.7200     2.0860 hc         1 45U       0.042950
     36 H47A         9.2090    -0.6960     0.3700 hc         1 45U       0.042950
     37 H45          7.4380     1.0500     0.5650 hc         1 45U       0.053950
     38 H45A         6.4700     0.0240     1.6250 hc         1 45U       0.053950
     39 H1           0.2040     0.4900     0.9610 h1         1 45U       0.078700
     40 H2          -0.9640     2.8900     0.2680 hc         1 45U       0.056700
     41 H2A          0.2540     2.8520     1.5410 hc         1 45U       0.056700
     42 H3           0.7830     3.4230    -1.4580 hc         1 45U       0.062200
     43 H3A          1.1460     4.5020    -0.1090 hc         1 45U       0.062200
     44 H4           2.8960     3.0020     0.7560 h1         1 45U       0.045700
     45 H4A          3.0990     2.8240    -1.0080 h1         1 45U       0.045700
     46 HN23        -1.8740     0.4600     0.1710 hn         1 45U       0.317500
     47 H24         -2.7050     0.6030    -2.5640 h1         1 45U       0.060200
     48 H24A        -2.2550    -1.0730    -2.1810 h1         1 45U       0.060200
     49 H30         -4.6120     1.7090    -1.3910 ha         1 45U       0.121000
     50 H29         -6.7960     1.3920    -0.3000 ha         1 45U       0.129500
     51 HN47        -9.2690    -1.9460     1.3390 hn         1 45U       0.372400
     52 HN46        -7.8780     0.9920     1.4680 hn         1 45U       0.460000
     53 HN4A        -9.0800    -0.0220     2.1400 hn         1 45U       0.460000
     54 H27         -5.7730    -2.7450     0.5130 ha         1 45U       0.129500
     55 H26         -3.5950    -2.4130    -0.5970 ha         1 45U       0.121000
@<TRIPOS>BOND
     1     1     2 2   
     2     2     3 1   
     3     2    10 1   
     4     3     4 1   
     5     3    28 1   
     6     3    29 1   
     7     4     5 1   
     8     5     6 1   
     9     5     9 1   
    10     5    30 1   
    11     6     7 1   
    12     6    31 1   
    13     6    32 1   
    14     7     8 1   
    15     7    33 1   
    16     7    34 1   
    17     8     9 1   
    18     8    35 1   
    19     8    36 1   
    20     9    37 1   
    21     9    38 1   
    22    10    11 1   
    23    10    16 1   
    24    11    12 1   
    25    11    14 1   
    26    11    39 1   
    27    12    13 2   
    28    12    17 1   
    29    14    15 1   
    30    14    40 1   
    31    14    41 1   
    32    15    16 1   
    33    15    42 1   
    34    15    43 1   
    35    16    44 1   
    36    16    45 1   
    37    17    18 1   
    38    17    46 1   
    39    18    19 1   
    40    18    47 1   
    41    18    48 1   
    42    19    20 ar  
    43    19    27 ar  
    44    20    21 ar  
    45    20    49 1   
    46    21    22 ar  
    47    21    50 1   
    48    22    23 1   
    49    22    26 ar  
    50    23    24 2   
    51    23    25 1   
    52    24    51 1   
    53    25    52 1   
    54    25    53 1   
    55    26    27 ar  
    56    26    54 1   
    57    27    55 1   
@<TRIPOS>SUBSTRUCTURE
     1 45U         1 TEMP              0 ****  ****    0 ROOT
