@<TRIPOS>MOLECULE
45V
   37    38     1     0     0
SMALL
bcc


@<TRIPOS>ATOM
      1 C4          -0.2110    -0.0810     0.6800 c6         1 45V       0.172000
      2 C5           0.5200    -2.4390     0.6470 c          1 45V       0.689100
      3 C6           0.7880    -3.6620    -0.1920 c3         1 45V      -0.177100
      4 N1           0.0280    -1.3420    -0.0170 n          1 45V      -0.396000
      5 C7          -0.4210    -1.4030    -1.3360 c2         1 45V      -0.009400
      6 C8          -1.4680    -0.6690    -1.7350 ce         1 45V      -0.189200
      7 C9          -2.2250     0.1050    -0.7660 ca         1 45V      -0.032800
      8 C10         -3.5140     0.5730    -1.0210 ca         1 45V      -0.121000
      9 C11         -4.2260     1.2390    -0.0330 ca         1 45V      -0.122000
     10 C12         -3.6590     1.4370     1.2200 ca         1 45V      -0.132000
     11 C13         -2.3720     0.9790     1.4790 ca         1 45V      -0.108000
     12 C14         -1.6510     0.3270     0.4920 ca         1 45V      -0.110300
     13 O1           0.7170    -2.4290     1.8460 o          1 45V      -0.554100
     14 C3           0.6830     1.0330     0.1260 c3         1 45V      -0.172400
     15 H1           0.0030    -0.2410     1.7350 h1         1 45V       0.110700
     16 H2           1.5150    -3.4570    -0.9790 hc         1 45V       0.062367
     17 H3           1.1850    -4.4490     0.4440 hc         1 45V       0.062367
     18 H4          -0.1190    -4.0290    -0.6730 hc         1 45V       0.062367
     19 H5           0.1030    -2.0610    -2.0140 h4         1 45V       0.144000
     20 H6          -1.7880    -0.7140    -2.7660 ha         1 45V       0.140000
     21 H7          -3.9620     0.4050    -1.9930 ha         1 45V       0.131000
     22 H8          -5.2250     1.5990    -0.2400 ha         1 45V       0.131000
     23 H9          -4.2130     1.9540     1.9920 ha         1 45V       0.133000
     24 H10         -1.9250     1.1450     2.4530 ha         1 45V       0.136000
     25 H11          0.4440     1.1960    -0.9280 hc         1 45V       0.068700
     26 H12          0.4140     1.9650     0.6330 hc         1 45V       0.068700
     27 C1           2.1680     0.7850     0.3090 c          1 45V       0.673100
     28 N2           3.0020     1.6150    -0.3530 n          1 45V      -0.482800
     29 O2           2.5720    -0.1100     1.0400 o          1 45V      -0.591100
     30 C2           4.4340     1.4050    -0.3180 c3         1 45V       0.086300
     31 C15          2.5490     2.6540    -1.2560 c3         1 45V       0.086300
     32 H13          4.8040     1.0900    -1.2960 h1         1 45V       0.040533
     33 H14          4.9420     2.3310    -0.0460 h1         1 45V       0.040533
     34 H15          4.6900     0.6420     0.4100 h1         1 45V       0.040533
     35 H16          1.6380     3.1310    -0.9030 h1         1 45V       0.040533
     36 H17          3.3130     3.4270    -1.3130 h1         1 45V       0.040533
     37 H18          2.3760     2.2770    -2.2670 h1         1 45V       0.040533
@<TRIPOS>BOND
     1     1     4 1   
     2     1    12 1   
     3     1    14 1   
     4     1    15 1   
     5     2     3 1   
     6     2     4 1   
     7     2    13 2   
     8     3    16 1   
     9     3    17 1   
    10     3    18 1   
    11     4     5 1   
    12     5     6 2   
    13     5    19 1   
    14     6     7 1   
    15     6    20 1   
    16     7     8 ar  
    17     7    12 ar  
    18     8     9 ar  
    19     8    21 1   
    20     9    10 ar  
    21     9    22 1   
    22    10    11 ar  
    23    10    23 1   
    24    11    12 ar  
    25    11    24 1   
    26    14    25 1   
    27    14    26 1   
    28    14    27 1   
    29    27    28 1   
    30    27    29 2   
    31    28    30 1   
    32    28    31 1   
    33    30    32 1   
    34    30    33 1   
    35    30    34 1   
    36    31    35 1   
    37    31    36 1   
    38    31    37 1   
@<TRIPOS>SUBSTRUCTURE
     1 45V         1 TEMP              0 ****  ****    0 ROOT
