@<TRIPOS>MOLECULE
45V
   37    38     1     0     0
SMALL
No Charge or Current Charge


@<TRIPOS>ATOM
      1 C4          -0.3040     0.1910     0.6520 c6         1 45V       0.172000
      2 C5           1.1060    -1.8670     0.1970 c          1 45V       0.622100
      3 C6           1.5510    -2.9820    -0.7520 c3         1 45V      -0.177100
      4 N1           0.1620    -0.9060    -0.2540 n          1 45V      -0.329000
      5 C7          -0.4560    -0.9780    -1.5330 c2         1 45V      -0.059400
      6 C8          -1.6850    -0.4830    -1.7740 ce         1 45V      -0.239200
      7 C9          -2.4680     0.1640    -0.6990 ca         1 45V      -0.032800
      8 C10         -3.8340     0.4540    -0.8580 ca         1 45V      -0.103000
      9 C11         -4.5530     1.0460     0.1960 ca         1 45V      -0.104000
     10 C12         -3.9040     1.3460     1.4060 ca         1 45V      -0.114000
     11 C13         -2.5370     1.0590     1.5640 ca         1 45V      -0.090000
     12 C14         -1.8120     0.4670     0.5100 ca         1 45V      -0.110300
     13 O1           1.5690    -1.8170     1.3290 o          1 45V      -0.554100
     14 C3           0.4750     1.5100     0.4010 c3         1 45V      -0.172400
     15 H1          -0.1310    -0.1050     1.6980 h1         1 45V       0.110700
     16 H2           2.0220    -2.5330    -1.6330 hc         1 45V       0.062367
     17 H3           2.2290    -3.6950    -0.2680 hc         1 45V       0.062367
     18 H4           0.6700    -3.4830    -1.1680 hc         1 45V       0.062367
     19 H5           0.1250    -1.4650    -2.3180 h4         1 45V       0.194000
     20 H6          -2.1530    -0.5590    -2.7570 ha         1 45V       0.190000
     21 H7          -4.3390     0.2170    -1.7910 ha         1 45V       0.113000
     22 H8          -5.6100     1.2690     0.0750 ha         1 45V       0.113000
     23 H9          -4.4600     1.8040     2.2210 ha         1 45V       0.115000
     24 H10         -2.0400     1.3040     2.5000 ha         1 45V       0.118000
     25 H11          0.3470     1.7860    -0.6490 hc         1 45V       0.068700
     26 H12          0.0420     2.2970     1.0290 hc         1 45V       0.068700
     27 C1           1.9570     1.3790     0.7790 c          1 45V       0.606100
     28 N2           2.9270     1.1000    -0.2170 n          1 45V      -0.415800
     29 O2           2.2890     1.4910     1.9520 o          1 45V      -0.591100
     30 C2           4.3380     0.8750     0.1710 c3         1 45V       0.086300
     31 C15          2.6310     1.2020    -1.6640 c3         1 45V       0.086300
     32 H13          4.9060     0.4450    -0.6640 h1         1 45V       0.040533
     33 H14          4.7970     1.8290     0.4630 h1         1 45V       0.040533
     34 H15          4.3860     0.1780     1.0180 h1         1 45V       0.040533
     35 H16          2.2390     2.2010    -1.8940 h1         1 45V       0.040533
     36 H17          3.5390     1.0420    -2.2580 h1         1 45V       0.040533
     37 H18          1.8910     0.4450    -1.9510 h1         1 45V       0.040533
@<TRIPOS>BOND
     1     1     4 1   
     2     1    12 1   
     3     1    14 1   
     4     1    15 1   
     5     2     3 1   
     6     2     4 1   
     7     2    13 2   
     8     3    16 1   
     9     3    17 1   
    10     3    18 1   
    11     4     5 1   
    12     5     6 2   
    13     5    19 1   
    14     6     7 1   
    15     6    20 1   
    16     7     8 ar  
    17     7    12 ar  
    18     8     9 ar  
    19     8    21 1   
    20     9    10 ar  
    21     9    22 1   
    22    10    11 ar  
    23    10    23 1   
    24    11    12 ar  
    25    11    24 1   
    26    14    25 1   
    27    14    26 1   
    28    14    27 1   
    29    27    28 1   
    30    27    29 2   
    31    28    30 1   
    32    28    31 1   
    33    30    32 1   
    34    30    33 1   
    35    30    34 1   
    36    31    35 1   
    37    31    36 1   
    38    31    37 1   
@<TRIPOS>SUBSTRUCTURE
     1 45V         1 TEMP              0 ****  ****    0 ROOT
