@<TRIPOS>MOLECULE
45W
   19    19     1     0     0
SMALL
No Charge or Current Charge


@<TRIPOS>ATOM
      1 CB         -15.4440    32.5160    29.0430 c5         1 45W      -0.120400
      2 CD         -13.3380    31.2620    28.6390 c5         1 45W       0.119800
      3 C          -13.5530    34.3280    29.0470 c          1 45W       0.727000
      4 O          -13.6310    34.4170    27.8270 o          1 45W      -0.721000
      5 CA         -14.2170    33.0950    29.8170 c5         1 45W       0.006500
      6 CG         -14.7780    31.4940    28.0530 c5         1 45W       0.130300
      7 N          -13.3600    31.8730    29.9960 n7         1 45W      -0.790400
      8 O48        -15.5400    30.2440    28.0000 os         1 45W      -0.263600
      9 C49        -15.6620    29.5010    29.0850 c1         1 45W       0.018600
     10 C50        -15.7910    28.7740    30.0410 c1         1 45W      -0.367000
     11 O1         -13.0030    35.1980    29.7110 o          1 45W      -0.721000
     12 H1         -16.0120    33.2920    28.5180 hc         1 45W       0.052700
     13 H2         -16.1440    32.0430    29.7400 hc         1 45W       0.052700
     14 H3         -13.0510    30.2010    28.6710 h1         1 45W       0.060700
     15 H4         -12.5970    31.7730    28.0090 h1         1 45W       0.060700
     16 H5         -14.5350    33.4800    30.7950 h1         1 45W       0.047700
     17 H6         -14.7140    31.9050    27.0360 h1         1 45W       0.088700
     18 H7         -13.8580    31.2260    30.6190 hn         1 45W       0.362000
     19 H9         -15.9170    28.1230    30.8840 ha         1 45W       0.256000
@<TRIPOS>BOND
     1     1     5 1   
     2     1     6 1   
     3     1    12 1   
     4     1    13 1   
     5     2     6 1   
     6     2     7 1   
     7     2    14 1   
     8     2    15 1   
     9     3     4 1   
    10     3     5 1   
    11     3    11 1   
    12     5     7 1   
    13     5    16 1   
    14     6     8 1   
    15     6    17 1   
    16     7    18 1   
    17     8     9 1   
    18     9    10 3   
    19    10    19 1   
@<TRIPOS>SUBSTRUCTURE
     1 45W         1 TEMP              0 ****  ****    0 ROOT
