@<TRIPOS>MOLECULE
45W
   19    19     1     0     0
SMALL
bcc


@<TRIPOS>ATOM
      1 CB         -15.4140    32.4630    28.8680 c5         1 45W      -0.120400
      2 CD         -13.2840    31.2990    28.8060 c5         1 45W       0.119800
      3 C          -13.6760    34.3300    29.0770 c          1 45W       0.937600
      4 O          -14.4830    35.1880    28.6670 o          1 45W      -0.826300
      5 CA         -14.3390    33.1040    29.7640 c5         1 45W       0.006500
      6 CG         -14.6330    31.4210    28.0670 c5         1 45W       0.107100
      7 N          -13.4090    32.0180    30.0640 n7         1 45W      -0.735200
      8 O48        -15.3420    30.1530    27.9430 os         1 45W      -0.240400
      9 C49        -15.5750    29.5020    29.0260 c1         1 45W       0.018600
     10 C50        -15.8120    28.8550    30.0120 c1         1 45W      -0.279500
     11 O1         -12.4360    34.3740    29.0080 o          1 45W      -0.826300
     12 H1         -15.9340    33.1780    28.2340 hc         1 45W       0.052700
     13 H2         -16.1670    31.9690    29.4910 hc         1 45W       0.052700
     14 H3         -12.9770    30.2630    28.9620 h1         1 45W       0.060700
     15 H4         -12.5110    31.7720    28.1970 h1         1 45W       0.060700
     16 H5         -14.7860    33.4610    30.6960 h1         1 45W       0.047700
     17 H6         -14.4980    31.7120    27.0270 h1         1 45W       0.088700
     18 H7         -13.8460    31.4040    30.7420 hn         1 45W       0.306800
     19 H9         -16.0240    28.2780    30.8810 ha         1 45W       0.168500
@<TRIPOS>BOND
     1     1     5 1   
     2     1     6 1   
     3     1    12 1   
     4     1    13 1   
     5     2     6 1   
     6     2     7 1   
     7     2    14 1   
     8     2    15 1   
     9     3     4 1   
    10     3     5 1   
    11     3    11 1   
    12     5     7 1   
    13     5    16 1   
    14     6     8 1   
    15     6    17 1   
    16     7    18 1   
    17     8     9 1   
    18     9    10 3   
    19    10    19 1   
@<TRIPOS>SUBSTRUCTURE
     1 45W         1 TEMP              0 ****  ****    0 ROOT
