@<TRIPOS>MOLECULE
45X
   19    19     1     0     0
SMALL
abcg2


@<TRIPOS>ATOM
      1 C1          -1.4060    -0.0900    -0.7320 c3         1 45X      -0.030100
      2 C6           0.8190    -1.1840    -0.2830 ca         1 45X       0.338900
      3 C5           2.6970    -0.0410     0.2990 ca         1 45X       0.332900
      4 C4           2.0340     1.1750     0.2290 ca         1 45X      -0.163000
      5 C3           0.6930     1.1780    -0.1210 ca         1 45X      -0.074000
      6 C2           0.0520    -0.0280    -0.3870 ca         1 45X      -0.131300
      7 N           -3.6960    -0.0350     0.1360 n8         1 45X      -0.998200
      8 C           -2.2920     0.0300     0.5070 c3         1 45X       0.151800
      9 N1           2.1050    -1.2020     0.0470 nb         1 45X      -0.664000
     10 H1          -1.6520     0.7140    -1.4330 hc         1 45X       0.056700
     11 H2          -1.6330    -1.0320    -1.2360 hc         1 45X       0.056700
     12 H3           0.3620    -2.1490    -0.4870 h4         1 45X       0.019100
     13 H4           3.7480    -0.0770     0.5650 h4         1 45X       0.018100
     14 H5           2.5600     2.0970     0.4400 ha         1 45X       0.122000
     15 H6           0.1490     2.1120    -0.1930 ha         1 45X       0.116000
     16 H7          -4.2640    -0.0800     0.9720 hn         1 45X       0.393500
     17 H8          -3.9620     0.8250    -0.3280 hn         1 45X       0.393500
     18 H10         -2.0740    -0.8060     1.1770 h1         1 45X       0.030700
     19 H11         -2.0190     0.9430     1.0550 h1         1 45X       0.030700
@<TRIPOS>BOND
     1     1     6 1   
     2     1     8 1   
     3     1    10 1   
     4     1    11 1   
     5     2     6 ar  
     6     2     9 ar  
     7     2    12 1   
     8     3     4 ar  
     9     3     9 ar  
    10     3    13 1   
    11     4     5 ar  
    12     4    14 1   
    13     5     6 ar  
    14     5    15 1   
    15     7     8 1   
    16     7    16 1   
    17     7    17 1   
    18     8    18 1   
    19     8    19 1   
@<TRIPOS>SUBSTRUCTURE
     1 45X         1 TEMP              0 ****  ****    0 ROOT
