@<TRIPOS>MOLECULE
45X
   19    19     1     0     0
SMALL
No Charge or Current Charge


@<TRIPOS>ATOM
      1 C1          -1.4100     0.0330    -0.7410 c3         1 45X      -0.030100
      2 C6           0.7550    -1.1710    -0.1350 ca         1 45X       0.338900
      3 C5           2.7350    -0.0590     0.3310 ca         1 45X       0.332900
      4 C4           2.1300     1.1930     0.1240 ca         1 45X      -0.163000
      5 C3           0.7720     1.2500    -0.2290 ca         1 45X      -0.074000
      6 C2           0.0670     0.0400    -0.3640 ca         1 45X      -0.131300
      7 N           -3.7530    -0.1290     0.1260 n8         1 45X      -0.998200
      8 C           -2.3230    -0.1030     0.4950 c3         1 45X       0.151800
      9 N1           2.0650    -1.2280     0.2060 nb         1 45X      -0.664000
     10 H1          -1.6670     0.9520    -1.2810 hc         1 45X       0.056700
     11 H2          -1.6130    -0.7960    -1.4300 hc         1 45X       0.056700
     12 H3           0.2410    -2.1270    -0.2270 h4         1 45X       0.019100
     13 H4           3.7870    -0.1280     0.6060 h4         1 45X       0.018100
     14 H5           2.7120     2.1030     0.2380 ha         1 45X       0.122000
     15 H6           0.2820     2.2080    -0.3930 ha         1 45X       0.116000
     16 H7          -4.3190    -0.1690     0.9820 hn         1 45X       0.393500
     17 H8          -4.0090     0.7770    -0.2860 hn         1 45X       0.393500
     18 H10         -2.0830    -1.0340     1.0290 h1         1 45X       0.030700
     19 H11         -2.1490     0.7410     1.1770 h1         1 45X       0.030700
@<TRIPOS>BOND
     1     1     6 1   
     2     1     8 1   
     3     1    10 1   
     4     1    11 1   
     5     2     6 ar  
     6     2     9 ar  
     7     2    12 1   
     8     3     4 ar  
     9     3     9 ar  
    10     3    13 1   
    11     4     5 ar  
    12     4    14 1   
    13     5     6 ar  
    14     5    15 1   
    15     7     8 1   
    16     7    16 1   
    17     7    17 1   
    18     8    18 1   
    19     8    19 1   
@<TRIPOS>SUBSTRUCTURE
     1 45X         1 TEMP              0 ****  ****    0 ROOT
