@<TRIPOS>MOLECULE
45Y
   21    21     1     0     0
SMALL
bcc


@<TRIPOS>ATOM
      1 C4           0.7270    -1.1610    -0.4550 ca         1 45Y      -0.084500
      2 C5           2.0190    -1.3210     0.0250 ca         1 45Y      -0.169500
      3 C6          -1.1970     0.2560    -1.2320 c3         1 45Y      -0.114100
      4 N1          -4.2550     0.0280     0.8620 n8         1 45Y      -0.605800
      5 C7          -2.1440     0.5840    -0.0860 c          1 45Y       0.689100
      6 O           -1.8880     1.4500     0.7310 o          1 45Y      -0.555100
      7 N           -3.2660    -0.1560    -0.0880 ns         1 45Y      -0.481300
      8 C3           0.2150     0.1000    -0.7460 ca         1 45Y      -0.094300
      9 C2           1.0300     1.2110    -0.5430 ca         1 45Y      -0.084500
     10 C1           2.3250     1.0740    -0.0660 ca         1 45Y      -0.169500
     11 C            2.7960    -0.1950     0.2130 ca         1 45Y       0.139900
     12 F            4.0500    -0.3370     0.6740 f          1 45Y      -0.143900
     13 H1           0.1120    -2.0400    -0.6080 ha         1 45Y       0.135500
     14 H2           2.4120    -2.3050     0.2460 ha         1 45Y       0.150500
     15 H3          -1.5150    -0.6420    -1.7640 hc         1 45Y       0.062200
     16 H4          -1.2630     1.0810    -1.9470 hc         1 45Y       0.062200
     17 H5          -5.1240     0.2450     0.3930 hn         1 45Y       0.341300
     18 H6          -4.3910    -0.8390     1.3660 hn         1 45Y       0.341300
     19 H7          -3.3860    -0.8700    -0.7910 hn         1 45Y       0.295500
     20 H8           0.6560     2.2010    -0.7690 ha         1 45Y       0.135500
     21 H9           2.9570     1.9390     0.0860 ha         1 45Y       0.150500
@<TRIPOS>BOND
     1     1     2 ar  
     2     1     8 ar  
     3     1    13 1   
     4     2    11 ar  
     5     2    14 1   
     6     3     5 1   
     7     3     8 1   
     8     3    15 1   
     9     3    16 1   
    10     4     7 1   
    11     4    17 1   
    12     4    18 1   
    13     5     6 2   
    14     5     7 1   
    15     7    19 1   
    16     8     9 ar  
    17     9    10 ar  
    18     9    20 1   
    19    10    11 ar  
    20    10    21 1   
    21    11    12 1   
@<TRIPOS>SUBSTRUCTURE
     1 45Y         1 TEMP              0 ****  ****    0 ROOT
