@<TRIPOS>MOLECULE
45Y
   21    21     1     0     0
SMALL
No Charge or Current Charge


@<TRIPOS>ATOM
      1 C4           0.5620    -1.1110    -0.4830 ca         1 45Y      -0.066500
      2 C5           1.8270    -1.3720     0.0720 ca         1 45Y      -0.151500
      3 C6          -1.1850     0.4960    -1.4080 c3         1 45Y      -0.114100
      4 N1          -4.1680    -0.1810     0.9830 n8         1 45Y      -0.716200
      5 C7          -2.2140     0.8050    -0.3110 c          1 45Y       0.622100
      6 O           -2.2520     1.8830     0.2690 o          1 45Y      -0.555100
      7 N           -3.1030    -0.2370    -0.0180 ns         1 45Y      -0.414300
      8 C3           0.1890     0.2090    -0.8080 ca         1 45Y      -0.094300
      9 C2           1.0930     1.2650    -0.5720 ca         1 45Y      -0.066500
     10 C1           2.3580     1.0020    -0.0170 ca         1 45Y      -0.151500
     11 C            2.7210    -0.3150     0.3030 ca         1 45Y       0.175000
     12 F            3.9360    -0.5670     0.8360 f          1 45Y      -0.179000
     13 H1          -0.1270    -1.9350    -0.6590 ha         1 45Y       0.117500
     14 H2           2.1150    -2.3890     0.3230 ha         1 45Y       0.132500
     15 H3          -1.5140    -0.3760    -1.9870 hc         1 45Y       0.062200
     16 H4          -1.1190     1.3630    -2.0760 hc         1 45Y       0.062200
     17 H5          -5.0940    -0.3400     0.5580 hn         1 45Y       0.396500
     18 H6          -4.0470    -0.9080     1.7040 hn         1 45Y       0.396500
     19 H7          -2.9790    -1.0940    -0.5590 hn         1 45Y       0.295500
     20 H8           0.8150     2.2880    -0.8160 ha         1 45Y       0.117500
     21 H9           3.0550     1.8150     0.1660 ha         1 45Y       0.132500
@<TRIPOS>BOND
     1     1     2 ar  
     2     1     8 ar  
     3     1    13 1   
     4     2    11 ar  
     5     2    14 1   
     6     3     5 1   
     7     3     8 1   
     8     3    15 1   
     9     3    16 1   
    10     4     7 1   
    11     4    17 1   
    12     4    18 1   
    13     5     6 2   
    14     5     7 1   
    15     7    19 1   
    16     8     9 ar  
    17     9    10 ar  
    18     9    20 1   
    19    10    11 ar  
    20    10    21 1   
    21    11    12 1   
@<TRIPOS>SUBSTRUCTURE
     1 45Y         1 TEMP              0 ****  ****    0 ROOT
