@<TRIPOS>MOLECULE
45Z
   40    42     1     0     0
SMALL
No Charge or Current Charge


@<TRIPOS>ATOM
      1 N1           0.6310     1.7490     2.9410 n1         1 45Z      -0.428000
      2 C1          -0.1810     1.4010     2.1780 cg         1 45Z       0.325000
      3 C2          -1.1850     0.9920     1.2370 ca         1 45Z      -0.058000
      4 C3          -2.0090     1.9650     0.6390 ca         1 45Z       0.020000
      5 C4          -3.0020     1.5860    -0.2950 ca         1 45Z      -0.207200
      6 N2          -3.8690     2.6220    -0.9400 no         1 45Z       0.704200
      7 O1          -3.6700     3.8090    -0.6530 o          1 45Z      -0.390500
      8 O2          -4.7450     2.2440    -1.7270 o          1 45Z      -0.390500
      9 C5          -3.1650     0.2190    -0.6150 ca         1 45Z       0.014000
     10 C6          -2.3410    -0.7480    -0.0170 ca         1 45Z      -0.185000
     11 C7          -1.3420    -0.3670     0.8980 ca         1 45Z       0.199100
     12 O3          -0.5180    -1.3120     1.4760 os         1 45Z      -0.226200
     13 C8          -0.2040    -2.5160     0.8800 ca         1 45Z       0.044100
     14 C9          -0.4050    -3.6920     1.6240 ca         1 45Z      -0.064000
     15 C10         -0.1070    -4.9460     1.0600 ca         1 45Z      -0.141000
     16 C11          0.3930    -5.0220    -0.2480 ca         1 45Z       0.195000
     17 F            0.6730    -6.2280    -0.7900 f          1 45Z      -0.158000
     18 C12          0.6100    -3.8560    -0.9950 ca         1 45Z      -0.141000
     19 C13          0.3290    -2.5980    -0.4360 ca         1 45Z       0.100100
     20 O4           0.5650    -1.4820    -1.2090 os         1 45Z      -0.230200
     21 C14          1.3200    -0.4070    -0.7840 ca         1 45Z       0.198100
     22 C19          1.0740     0.8720    -1.3230 ca         1 45Z      -0.054000
     23 C20          0.0500     1.0650    -2.3100 cg         1 45Z       0.324000
     24 N4          -0.7800     1.2390    -3.1130 n1         1 45Z      -0.426000
     25 C18          1.8280     1.9770    -0.8830 ca         1 45Z       0.018000
     26 C15          2.3380    -0.5770     0.1740 ca         1 45Z      -0.181000
     27 C16          3.0920     0.5230     0.6150 ca         1 45Z       0.012000
     28 C17          2.8390     1.8120     0.0930 ca         1 45Z      -0.203200
     29 N3           3.6300     2.9890     0.5700 no         1 45Z       0.704200
     30 O5           4.5260     2.7940     1.4010 o          1 45Z      -0.390000
     31 O6           3.3540     4.1040     0.1080 o          1 45Z      -0.390000
     32 H1          -1.8700     3.0130     0.9040 ha         1 45Z       0.169000
     33 H2          -3.9250    -0.1030    -1.3270 ha         1 45Z       0.160000
     34 H4          -0.7990    -3.6300     2.6370 ha         1 45Z       0.147000
     35 H5          -0.2680    -5.8560     1.6330 ha         1 45Z       0.150000
     36 H6           1.0030    -3.9260    -2.0050 ha         1 45Z       0.161000
     37 H7           1.6200     2.9620    -1.3020 ha         1 45Z       0.169000
     38 H8           2.5490    -1.5610     0.5840 ha         1 45Z       0.145000
     39 H9           3.8670     0.3640     1.3640 ha         1 45Z       0.161000
     40 H3          -2.4830    -1.7950    -0.2720 ha         1 45Z       0.145000
@<TRIPOS>BOND
     1     1     2 3   
     2     2     3 1   
     3     3     4 ar  
     4     3    11 ar  
     5     4     5 ar  
     6     4    32 1   
     7     5     6 1   
     8     5     9 ar  
     9     6     7 1   
    10     6     8 1   
    11     9    10 ar  
    12     9    33 1   
    13    10    11 ar  
    14    10    40 1   
    15    11    12 1   
    16    12    13 1   
    17    13    14 ar  
    18    13    19 ar  
    19    14    15 ar  
    20    14    34 1   
    21    15    16 ar  
    22    15    35 1   
    23    16    17 1   
    24    16    18 ar  
    25    18    19 ar  
    26    18    36 1   
    27    19    20 1   
    28    20    21 1   
    29    21    22 ar  
    30    21    26 ar  
    31    22    23 1   
    32    22    25 ar  
    33    23    24 3   
    34    25    28 ar  
    35    25    37 1   
    36    26    27 ar  
    37    26    38 1   
    38    27    28 ar  
    39    27    39 1   
    40    28    29 1   
    41    29    30 1   
    42    29    31 1   
@<TRIPOS>SUBSTRUCTURE
     1 45Z         1 TEMP              0 ****  ****    0 ROOT
