@<TRIPOS>MOLECULE
45Z
   40    42     1     0     0
SMALL
bcc


@<TRIPOS>ATOM
      1 N1           0.6330     1.8910     2.4860 n1         1 45Z      -0.338800
      2 C1          -0.2420     1.5000     1.8470 cg         1 45Z       0.235800
      3 C2          -1.3240     1.0320     1.0470 ca         1 45Z      -0.058000
      4 C3          -2.2410     1.9270     0.5170 ca         1 45Z       0.002000
      5 C4          -3.2530     1.4390    -0.2860 ca         1 45Z      -0.207200
      6 N2          -4.2090     2.3700    -0.8580 no         1 45Z       0.324200
      7 O1          -4.1010     3.5380    -0.5700 o          1 45Z      -0.200500
      8 O2          -5.0580     1.9260    -1.5920 o          1 45Z      -0.200500
      9 C5          -3.3720     0.0820    -0.5600 ca         1 45Z      -0.004000
     10 C6          -2.4610    -0.8090    -0.0290 ca         1 45Z      -0.203000
     11 C7          -1.4330    -0.3390     0.7760 ca         1 45Z       0.199100
     12 O3          -0.5000    -1.1200     1.3450 os         1 45Z      -0.226200
     13 C8          -0.2380    -2.3590     0.8150 ca         1 45Z       0.044100
     14 C9          -0.5250    -3.5020     1.5360 ca         1 45Z      -0.082000
     15 C10         -0.1940    -4.7460     1.0180 ca         1 45Z      -0.159000
     16 C11          0.4160    -4.8110    -0.2190 ca         1 45Z       0.159900
     17 F            0.7370    -6.0060    -0.7240 f          1 45Z      -0.122900
     18 C12          0.7190    -3.6830    -0.9600 ca         1 45Z      -0.159000
     19 C13          0.3850    -2.4530    -0.4270 ca         1 45Z       0.100100
     20 O4           0.6040    -1.3180    -1.1610 os         1 45Z      -0.230200
     21 C14          1.4520    -0.3810    -0.6990 ca         1 45Z       0.198100
     22 C19          1.2360     0.9210    -1.1670 ca         1 45Z      -0.054000
     23 C20          0.1360     1.1770    -2.0350 cg         1 45Z       0.234800
     24 N4          -0.7580     1.3980    -2.7260 n1         1 45Z      -0.336800
     25 C18          2.0620     1.9590    -0.7580 ca         1 45Z       0.000000
     26 C15          2.4940    -0.6430     0.1790 ca         1 45Z      -0.199000
     27 C16          3.3110     0.3900     0.5930 ca         1 45Z      -0.006000
     28 C17          3.0860     1.6790     0.1260 ca         1 45Z      -0.203200
     29 N3           3.9380     2.7620     0.5830 no         1 45Z       0.324200
     30 O5           4.8020     2.4990     1.3840 o          1 45Z      -0.200000
     31 O6           3.7340     3.8670     0.1400 o          1 45Z      -0.200000
     32 H1          -2.1400     2.9820     0.7290 ha         1 45Z       0.187000
     33 H2          -4.1710    -0.2930    -1.1830 ha         1 45Z       0.178000
     34 H4          -1.0060    -3.4230     2.5010 ha         1 45Z       0.165000
     35 H5          -0.4140    -5.6490     1.5710 ha         1 45Z       0.168000
     36 H6           1.2020    -3.7550    -1.9250 ha         1 45Z       0.179000
     37 H7           1.8790     2.9610    -1.1180 ha         1 45Z       0.187000
     38 H8           2.6810    -1.6450     0.5390 ha         1 45Z       0.163000
     39 H9           4.1190     0.1790     1.2770 ha         1 45Z       0.179000
     40 H3          -2.5660    -1.8640    -0.2410 ha         1 45Z       0.163000
@<TRIPOS>BOND
     1     1     2 3   
     2     2     3 1   
     3     3     4 ar  
     4     3    11 ar  
     5     4     5 ar  
     6     4    32 1   
     7     5     6 1   
     8     5     9 ar  
     9     6     7 1   
    10     6     8 1   
    11     9    10 ar  
    12     9    33 1   
    13    10    11 ar  
    14    10    40 1   
    15    11    12 1   
    16    12    13 1   
    17    13    14 ar  
    18    13    19 ar  
    19    14    15 ar  
    20    14    34 1   
    21    15    16 ar  
    22    15    35 1   
    23    16    17 1   
    24    16    18 ar  
    25    18    19 ar  
    26    18    36 1   
    27    19    20 1   
    28    20    21 1   
    29    21    22 ar  
    30    21    26 ar  
    31    22    23 1   
    32    22    25 ar  
    33    23    24 3   
    34    25    28 ar  
    35    25    37 1   
    36    26    27 ar  
    37    26    38 1   
    38    27    28 ar  
    39    27    39 1   
    40    28    29 1   
    41    29    30 1   
    42    29    31 1   
@<TRIPOS>SUBSTRUCTURE
     1 45Z         1 TEMP              0 ****  ****    0 ROOT
