@<TRIPOS>MOLECULE
460
   37    40     1     0     0
SMALL
bcc


@<TRIPOS>ATOM
      1 C1           3.1960     1.9960    -0.0720 c3         1 460      -0.144400
      2 C2           2.7040     0.9010    -0.9690 ca         1 460       0.423600
      3 C3           3.5870    -0.0050    -1.5570 ca         1 460      -0.240300
      4 C4           3.0870    -0.9740    -2.4090 ca         1 460      -0.095000
      5 C5           1.7200    -1.0260    -2.6380 ca         1 460      -0.220300
      6 C6           0.9130    -0.1030    -1.9840 ca         1 460       0.481100
      7 N7           1.3970     0.8460    -1.1880 nb         1 460      -0.651000
      8 C8          -0.5460    -0.1340    -2.1770 ce         1 460       0.035200
      9 N9          -1.0270    -0.2640    -3.4730 nu         1 460      -0.504800
     10 N10         -2.4460    -0.2720    -3.4290 n7         1 460      -0.546000
     11 C12         -2.8330     0.1050    -2.0630 c5         1 460       0.164000
     12 C13         -1.5460    -0.0350    -1.2800 cf         1 460      -0.284000
     13 C14         -1.4590    -0.0500     0.1660 ca         1 460       0.533100
     14 C15         -2.5310     0.4890     0.9360 ca         1 460      -0.237300
     15 C16         -2.4480     0.5020     2.2950 ca         1 460      -0.130300
     16 C17         -1.2940    -0.0230     2.9200 ca         1 460       0.280300
     17 N18         -1.1900    -0.0100     4.2660 nb         1 460      -0.651000
     18 C19         -0.1060    -0.5080     4.8010 ca         1 460       0.411200
     19 C20          0.9570    -1.0590     4.0540 ca         1 460      -0.247300
     20 C21          0.8660    -1.0830     2.6910 ca         1 460      -0.131300
     21 C22         -0.2890    -0.5510     2.0740 ca         1 460       0.306300
     22 N23         -0.3930    -0.5710     0.7340 nb         1 460      -0.658000
     23 H11          3.2150     2.9490    -0.6050 hc         1 460       0.051367
     24 H12          2.5360     2.1160     0.7860 hc         1 460       0.051367
     25 H13          4.2040     1.8000     0.2880 hc         1 460       0.051367
     26 H3           4.6470     0.0570    -1.3500 ha         1 460       0.140000
     27 H4           3.7500    -1.6830    -2.8860 ha         1 460       0.138000
     28 H5           1.2870    -1.7720    -3.2910 ha         1 460       0.153000
     29 HN9         -0.6700     0.4250    -4.1260 hn         1 460       0.418800
     30 H10         -2.7240    -1.2330    -3.5860 hn         1 460       0.366800
     31 H121        -3.6320    -0.5520    -1.7160 h1         1 460       0.063200
     32 H122        -3.2200     1.1310    -2.0210 h1         1 460       0.063200
     33 H15         -3.4020     0.8950     0.4400 ha         1 460       0.141000
     34 H16         -3.2440     0.9100     2.9050 ha         1 460       0.152000
     35 H19         -0.0410    -0.4880     5.8840 h4         1 460       0.019100
     36 H20          1.8250    -1.4510     4.5660 ha         1 460       0.142000
     37 H21          1.6540    -1.4920     2.0720 ha         1 460       0.152000
@<TRIPOS>BOND
     1     1     2 1   
     2     1    23 1   
     3     1    24 1   
     4     1    25 1   
     5     2     3 ar  
     6     2     7 ar  
     7     3     4 ar  
     8     3    26 1   
     9     4     5 ar  
    10     4    27 1   
    11     5     6 ar  
    12     5    28 1   
    13     6     7 ar  
    14     6     8 1   
    15     8     9 1   
    16     8    12 2   
    17     9    10 1   
    18     9    29 1   
    19    10    11 1   
    20    10    30 1   
    21    11    12 1   
    22    11    31 1   
    23    11    32 1   
    24    12    13 1   
    25    13    14 ar  
    26    13    22 ar  
    27    14    15 ar  
    28    14    33 1   
    29    15    16 ar  
    30    15    34 1   
    31    16    17 ar  
    32    16    21 ar  
    33    17    18 ar  
    34    18    19 ar  
    35    18    35 1   
    36    19    20 ar  
    37    19    36 1   
    38    20    21 ar  
    39    20    37 1   
    40    21    22 ar  
@<TRIPOS>SUBSTRUCTURE
     1 460         1 TEMP              0 ****  ****    0 ROOT
