@<TRIPOS>MOLECULE
460
   37    40     1     0     0
SMALL
No Charge or Current Charge


@<TRIPOS>ATOM
      1 C1           3.3060     1.9430    -0.0430 c3         1 460      -0.144400
      2 C2           2.8060     0.9160    -1.0410 ca         1 460       0.358300
      3 C3           3.7000     0.1070    -1.7660 ca         1 460      -0.157000
      4 C4           3.1910    -0.8280    -2.6790 ca         1 460      -0.077000
      5 C5           1.7970    -0.9150    -2.8240 ca         1 460      -0.137000
      6 C6           0.9610    -0.0750    -2.0590 ca         1 460       0.415800
      7 N7           1.4670     0.8370    -1.1880 nb         1 460      -0.651000
      8 C8          -0.5440    -0.1560    -2.2100 ce         1 460       0.035200
      9 N9          -1.0700    -0.3000    -3.5060 nu         1 460      -0.560000
     10 N10         -2.4750    -0.5450    -3.3400 n7         1 460      -0.601200
     11 C12         -2.8760     0.0240    -2.0310 c5         1 460       0.164000
     12 C13         -1.5270    -0.0070    -1.2760 cf         1 460      -0.284000
     13 C14         -1.4840     0.0240     0.1990 ca         1 460       0.467800
     14 C15         -2.5240     0.6200     0.9400 ca         1 460      -0.154000
     15 C16         -2.4620     0.6250     2.3440 ca         1 460      -0.047000
     16 C17         -1.3650     0.0320     2.9910 ca         1 460       0.215000
     17 N18         -1.2960     0.0370     4.3480 nb         1 460      -0.651000
     18 C19         -0.2260    -0.5420     4.9400 ca         1 460       0.345900
     19 C20          0.8090    -1.1450     4.2090 ca         1 460      -0.164000
     20 C21          0.7420    -1.1540     2.8040 ca         1 460      -0.048000
     21 C22         -0.3590    -0.5590     2.1610 ca         1 460       0.241000
     22 N23         -0.4290    -0.5640     0.8060 nb         1 460      -0.658000
     23 H11          3.2230     2.9560    -0.4520 hc         1 460       0.051367
     24 H12          2.7270     1.9050     0.8880 hc         1 460       0.051367
     25 H13          4.3580     1.7710     0.2160 hc         1 460       0.051367
     26 H3           4.7730     0.2060    -1.6200 ha         1 460       0.122000
     27 H4           3.8550    -1.4690    -3.2550 ha         1 460       0.120000
     28 H5           1.3620    -1.6320    -3.5140 ha         1 460       0.135000
     29 HN9         -0.7120     0.3020    -4.2670 hn         1 460       0.474000
     30 H10         -2.6890    -1.5570    -3.3610 hn         1 460       0.422000
     31 H121        -3.6630    -0.5720    -1.5470 h1         1 460       0.063200
     32 H122        -3.2340     1.0570    -2.1440 h1         1 460       0.063200
     33 H15         -3.3640     1.0850     0.4360 ha         1 460       0.123000
     34 H16         -3.2550     1.0870     2.9270 ha         1 460       0.134000
     35 H19         -0.2000    -0.5210     6.0290 h4         1 460       0.019100
     36 H20          1.6490    -1.5980     4.7270 ha         1 460       0.124000
     37 H21          1.5320    -1.6140     2.2180 ha         1 460       0.134000
@<TRIPOS>BOND
     1     1     2 1   
     2     1    23 1   
     3     1    24 1   
     4     1    25 1   
     5     2     3 ar  
     6     2     7 ar  
     7     3     4 ar  
     8     3    26 1   
     9     4     5 ar  
    10     4    27 1   
    11     5     6 ar  
    12     5    28 1   
    13     6     7 ar  
    14     6     8 1   
    15     8     9 1   
    16     8    12 2   
    17     9    10 1   
    18     9    29 1   
    19    10    11 1   
    20    10    30 1   
    21    11    12 1   
    22    11    31 1   
    23    11    32 1   
    24    12    13 1   
    25    13    14 ar  
    26    13    22 ar  
    27    14    15 ar  
    28    14    33 1   
    29    15    16 ar  
    30    15    34 1   
    31    16    17 ar  
    32    16    21 ar  
    33    17    18 ar  
    34    18    19 ar  
    35    18    35 1   
    36    19    20 ar  
    37    19    36 1   
    38    20    21 ar  
    39    20    37 1   
    40    21    22 ar  
@<TRIPOS>SUBSTRUCTURE
     1 460         1 TEMP              0 ****  ****    0 ROOT
