@<TRIPOS>MOLECULE
461
   53    55     1     0     0
SMALL
No Charge or Current Charge


@<TRIPOS>ATOM
      1 Cl1         -0.9040    -4.2320    -0.9940 cl         1 461      -0.133000
      2 C1           0.2070    -2.9210    -1.2440 cc         1 461      -0.028000
      3 C2           0.8150    -2.6080    -2.4290 cd         1 461      -0.134000
      4 C3           1.6740    -1.4790    -2.3310 cd         1 461      -0.088000
      5 S2           0.6840    -1.8220     0.0450 ss         1 461       0.311000
      6 C4           1.7270    -0.9250    -1.0720 cc         1 461      -0.238800
      7 C5           2.4810     0.2500    -0.6520 ce         1 461       0.045800
      8 C6           2.4470     0.8190     0.5850 cf         1 461      -0.469100
      9 S1           3.2900     2.2720     1.0450 sy         1 461       1.175200
     10 O2           3.1780     2.4810     2.4890 o          1 461      -0.536500
     11 O1           4.5580     2.3850     0.3250 o          1 461      -0.536500
     12 N1           2.2750     3.3730     0.3220 n7         1 461      -0.905300
     13 C12          1.0060     3.8180     1.0080 c5         1 461       0.162500
     14 C13          0.2250     4.6340    -0.0560 c5         1 461      -0.101400
     15 C14         -0.5710     3.5230    -0.8070 c5         1 461       0.103000
     16 C50         -0.0000     2.6840     1.3850 c          1 461       0.534000
     17 O3          -0.0240     1.9890     2.3940 o          1 461      -0.521000
     18 N2          -0.8670     2.5680     0.2810 n          1 461      -0.234400
     19 C15         -1.8160     1.4980     0.1000 ca         1 461      -0.089000
     20 C21         -2.6810     1.0810     1.1400 ca         1 461       0.182000
     21 F1          -2.8540     1.8500     2.2390 f          1 461      -0.164000
     22 C22         -1.6610     0.6480    -1.0150 ca         1 461      -0.099000
     23 C26         -2.4190    -0.5300    -1.1350 ca         1 461      -0.120000
     24 C27         -3.3200    -0.9090    -0.1220 ca         1 461      -0.053300
     25 C24         -3.4460    -0.0880     1.0150 ca         1 461      -0.122000
     26 C28         -4.1410    -2.1980    -0.2570 c3         1 461       0.226800
     27 C7          -3.8400    -3.1330     0.9410 c3         1 461      -0.090100
     28 N3          -5.5980    -1.9240    -0.4450 n3         1 461      -0.715600
     29 C11         -5.8730    -0.9600    -1.5400 c3         1 461       0.149600
     30 C10         -6.4240    -3.1480    -0.5950 c3         1 461       0.149600
     31 H2           0.6540    -3.1630    -3.3470 ha         1 461       0.149000
     32 H3           2.2310    -1.0880    -3.1780 ha         1 461       0.141000
     33 H51C         3.0990     0.7040    -1.4340 ha         1 461       0.201000
     34 H61C         1.8620     0.4240     1.4160 h4         1 461       0.243000
     35 H1           2.0310     2.8390    -0.5100 hn         1 461       0.487000
     36 H12          1.2140     4.4120     1.9100 h1         1 461       0.123700
     37 H131        -0.4670     5.3300     0.4330 hc         1 461       0.075200
     38 H132         0.8630     5.2300    -0.7180 hc         1 461       0.075200
     39 H141        -1.4870     3.9140    -1.2690 h1         1 461       0.052200
     40 H142         0.0350     3.0480    -1.5890 h1         1 461       0.052200
     41 H22         -0.9380     0.8870    -1.7910 ha         1 461       0.118000
     42 H24         -4.1400    -0.3560     1.8080 ha         1 461       0.152000
     43 H26         -2.2900    -1.1590    -2.0130 ha         1 461       0.118000
     44 H28         -3.7740    -2.7190    -1.1530 h1         1 461       0.026700
     45 H71C        -4.3390    -2.7820     1.8510 hc         1 461       0.043700
     46 H72C        -4.1710    -4.1570     0.7360 hc         1 461       0.043700
     47 H73C        -2.7620    -3.1700     1.1360 hc         1 461       0.043700
     48 H111        -5.5030    -1.3430    -2.5010 h1         1 461       0.032367
     49 H112        -6.9520    -0.7800    -1.6370 h1         1 461       0.032367
     50 H113        -5.3970     0.0110    -1.3490 h1         1 461       0.032367
     51 H101        -6.3730    -3.7780     0.3020 h1         1 461       0.032367
     52 H102        -7.4800    -2.8880    -0.7470 h1         1 461       0.032367
     53 H103        -6.0910    -3.7430    -1.4570 h1         1 461       0.032367
@<TRIPOS>BOND
     1     1     2 1   
     2     2     3 2   
     3     2     5 1   
     4     3     4 1   
     5     3    31 1   
     6     4     6 2   
     7     4    32 1   
     8     5     6 1   
     9     6     7 1   
    10     7     8 2   
    11     7    33 1   
    12     8     9 1   
    13     8    34 1   
    14     9    10 2   
    15     9    11 2   
    16     9    12 1   
    17    12    13 1   
    18    12    35 1   
    19    13    14 1   
    20    13    16 1   
    21    13    36 1   
    22    14    15 1   
    23    14    37 1   
    24    14    38 1   
    25    15    18 1   
    26    15    39 1   
    27    15    40 1   
    28    16    17 2   
    29    16    18 1   
    30    18    19 1   
    31    19    20 ar  
    32    19    22 ar  
    33    20    21 1   
    34    20    25 ar  
    35    22    23 ar  
    36    22    41 1   
    37    23    24 ar  
    38    23    43 1   
    39    24    25 ar  
    40    24    26 1   
    41    25    42 1   
    42    26    27 1   
    43    26    28 1   
    44    26    44 1   
    45    27    45 1   
    46    27    46 1   
    47    27    47 1   
    48    28    29 1   
    49    28    30 1   
    50    29    48 1   
    51    29    49 1   
    52    29    50 1   
    53    30    51 1   
    54    30    52 1   
    55    30    53 1   
@<TRIPOS>SUBSTRUCTURE
     1 461         1 TEMP              0 ****  ****    0 ROOT
