@<TRIPOS>MOLECULE
461
   53    55     1     0     0
SMALL
bcc


@<TRIPOS>ATOM
      1 CL1          2.5390    -5.2580    -0.2480 cl         1 461      -0.041400
      2 C1           3.1700    -3.7260    -0.6390 cc         1 461       0.025300
      3 C2           4.1150    -3.4480    -1.5780 cd         1 461      -0.152000
      4 C3           4.3970    -2.0640    -1.6310 cd         1 461      -0.106000
      5 S2           2.6120    -2.3290     0.1890 ss         1 461       0.021200
      6 C4           3.6700    -1.3210    -0.7390 cc         1 461      -0.093900
      7 C5           3.7470     0.1070    -0.5710 ce         1 461       0.095800
      8 C6           3.0480     0.8260     0.3100 cf         1 461      -0.419100
      9 S1           3.2260     2.5650     0.4090 sy         1 461       1.316800
     10 O2           3.3700     2.9210     1.8120 o          1 461      -0.607300
     11 O1           4.2360     2.9750    -0.5520 o          1 461      -0.607300
     12 N1           1.8130     3.2360    -0.0950 n7         1 461      -0.850100
     13 C12          0.6650     3.4530     0.7710 c5         1 461       0.162500
     14 C13         -0.2990     4.4630     0.1560 c5         1 461      -0.101400
     15 C14         -1.3020     3.6090    -0.6190 c5         1 461       0.103000
     16 C50         -0.1900     2.1900     0.8990 c          1 461       0.676500
     17 O3           0.0810     1.2000     1.5490 o          1 461      -0.596500
     18 N2          -1.2760     2.3490     0.1120 n          1 461      -0.394000
     19 C15         -2.2220     1.3300    -0.0980 ca         1 461       0.003600
     20 C21         -3.0200     0.8790     0.9460 ca         1 461       0.146900
     21 F1          -2.8770     1.4430     2.1520 f          1 461      -0.128900
     22 C22         -2.4040     0.7560    -1.3490 ca         1 461      -0.117000
     23 C26         -3.3580    -0.2320    -1.5400 ca         1 461      -0.138000
     24 C27         -4.1380    -0.6820    -0.4810 ca         1 461      -0.053300
     25 C24         -3.9600    -0.1140     0.7770 ca         1 461      -0.140000
     26 C28         -5.1320    -1.8070    -0.6720 c3         1 461       0.226800
     27 C7          -4.5090    -3.0990    -0.1430 c3         1 461      -0.090100
     28 N3          -6.3910    -1.4830    -0.0160 n3         1 461      -0.715600
     29 C11         -7.0190    -0.3310    -0.6340 c3         1 461       0.149600
     30 C10         -7.3270    -2.5880     0.0250 c3         1 461       0.149600
     31 H2           4.5850    -4.1940    -2.2010 ha         1 461       0.167000
     32 H3           5.1180    -1.6250    -2.3070 ha         1 461       0.159000
     33 H51C         4.4470     0.6000    -1.2380 ha         1 461       0.151000
     34 H61C         2.3280     0.4150     1.0070 h4         1 461       0.193000
     35 H1           1.6260     3.0960    -1.0820 hn         1 461       0.431800
     36 H12          1.0250     3.7690     1.7480 h1         1 461       0.123700
     37 H131        -0.8120     4.9940     0.9570 hc         1 461       0.075200
     38 H132         0.2040     5.1980    -0.4690 hc         1 461       0.075200
     39 H141        -2.3050     4.0330    -0.6110 h1         1 461       0.052200
     40 H142        -1.0070     3.4630    -1.6620 h1         1 461       0.052200
     41 H22         -1.7960     1.0900    -2.1810 ha         1 461       0.136000
     42 H24         -4.5690    -0.4270     1.6160 ha         1 461       0.170000
     43 H26         -3.4900    -0.6590    -2.5260 ha         1 461       0.136000
     44 H28         -5.2840    -1.9360    -1.7600 h1         1 461       0.026700
     45 H71C        -4.4230    -3.0760     0.9450 hc         1 461       0.043700
     46 H72C        -5.0860    -3.9790    -0.4260 hc         1 461       0.043700
     47 H73C        -3.5080    -3.2240    -0.5570 hc         1 461       0.043700
     48 H111        -7.3010    -0.5080    -1.6840 h1         1 461       0.032367
     49 H112        -7.9250    -0.0660    -0.0880 h1         1 461       0.032367
     50 H113        -6.3570     0.5350    -0.6100 h1         1 461       0.032367
     51 H101        -6.9400    -3.4180     0.6140 h1         1 461       0.032367
     52 H102        -8.2480    -2.2580     0.5060 h1         1 461       0.032367
     53 H103        -7.5940    -2.9730    -0.9720 h1         1 461       0.032367
@<TRIPOS>BOND
     1     1     2 1   
     2     2     3 2   
     3     2     5 1   
     4     3     4 1   
     5     3    31 1   
     6     4     6 2   
     7     4    32 1   
     8     5     6 1   
     9     6     7 1   
    10     7     8 2   
    11     7    33 1   
    12     8     9 1   
    13     8    34 1   
    14     9    10 2   
    15     9    11 2   
    16     9    12 1   
    17    12    13 1   
    18    12    35 1   
    19    13    14 1   
    20    13    16 1   
    21    13    36 1   
    22    14    15 1   
    23    14    37 1   
    24    14    38 1   
    25    15    18 1   
    26    15    39 1   
    27    15    40 1   
    28    16    17 2   
    29    16    18 1   
    30    18    19 1   
    31    19    20 ar  
    32    19    22 ar  
    33    20    21 1   
    34    20    25 ar  
    35    22    23 ar  
    36    22    41 1   
    37    23    24 ar  
    38    23    43 1   
    39    24    25 ar  
    40    24    26 1   
    41    25    42 1   
    42    26    27 1   
    43    26    28 1   
    44    26    44 1   
    45    27    45 1   
    46    27    46 1   
    47    27    47 1   
    48    28    29 1   
    49    28    30 1   
    50    29    48 1   
    51    29    49 1   
    52    29    50 1   
    53    30    51 1   
    54    30    52 1   
    55    30    53 1   
@<TRIPOS>SUBSTRUCTURE
     1 461         1 TEMP              0 ****  ****    0 ROOT
