@<TRIPOS>MOLECULE
462
   51    53     1     0     0
SMALL
No Charge or Current Charge


@<TRIPOS>ATOM
      1 C1           9.3660     0.4310    -0.5220 c3         1 462      -0.090100
      2 C2           8.3880    -0.6850    -0.1010 c3         1 462      -0.081400
      3 C3           6.9100    -0.2720    -0.2340 c3         1 462       0.163600
      4 O1           6.1060    -1.3880     0.1850 os         1 462      -0.351100
      5 C4           4.7270    -1.3390     0.1890 ca         1 462       0.151100
      6 C5           4.0310    -2.4780     0.6140 ca         1 462      -0.179000
      7 C6           2.6260    -2.4880     0.6390 ca         1 462      -0.060000
      8 C7           1.8850    -1.3470     0.2520 ca         1 462      -0.070000
      9 C8           2.5970    -0.2130    -0.1960 ca         1 462      -0.060000
     10 C9           4.0030    -0.2030    -0.2240 ca         1 462      -0.179000
     11 C10          0.4090    -1.3840     0.2740 cc         1 462      -0.025000
     12 C11         -0.1590    -2.5530    -0.1700 cd         1 462      -0.243000
     13 S1          -1.9090    -2.4340    -0.2940 ss         1 462       0.255000
     14 C12         -1.8410    -0.7360     0.2160 cd         1 462      -0.184000
     15 C13         -0.5480    -0.3350     0.5110 cc         1 462      -0.064300
     16 C14         -0.1620     1.0450     1.0230 c3         1 462      -0.101100
     17 C15         -0.5190     2.1720     0.0410 c          1 462       0.621100
     18 O2           0.1490     2.3940    -0.9600 o          1 462      -0.524100
     19 N1          -1.6270     2.9050     0.3840 ns         1 462      -0.449400
     20 C16         -2.2210     3.9000    -0.3230 c2         1 462       0.674800
     21 N2          -2.3690     3.9470    -1.5680 n2         1 462      -0.823100
     22 N3          -2.8660     4.6950     0.5330 nv         1 462      -1.111200
     23 C17         -3.1020    -0.0590     0.5890 ca         1 462      -0.016000
     24 C18         -3.2700     0.4650     1.8900 ca         1 462      -0.095000
     25 C19         -4.4660     1.1020     2.2630 ca         1 462      -0.120000
     26 C20         -5.5180     1.2190     1.3430 ca         1 462      -0.109000
     27 C21         -5.3750     0.6860     0.0520 ca         1 462      -0.106000
     28 C22         -4.1820     0.0440    -0.3250 ca         1 462       0.134000
     29 Cl1         -4.0510    -0.5340    -1.9870 cl         1 462      -0.166000
     30 H11A        10.4030     0.0930    -0.4110 hc         1 462       0.036033
     31 H12          9.2060     0.7110    -1.5700 hc         1 462       0.036033
     32 H13          9.2270     1.3230     0.1000 hc         1 462       0.036033
     33 H21A         8.5720    -1.5730    -0.7180 hc         1 462       0.054200
     34 H22          8.5920    -0.9660     0.9390 hc         1 462       0.054200
     35 H31          6.7160     0.6050     0.3980 h1         1 462       0.035200
     36 H32          6.6950    -0.0090    -1.2780 h1         1 462       0.035200
     37 H5           4.5830    -3.3590     0.9290 ha         1 462       0.123000
     38 H6           2.1140    -3.3810     0.9890 ha         1 462       0.127000
     39 H8           2.0670     0.6560    -0.5720 ha         1 462       0.127000
     40 H9           4.5090     0.6900    -0.5810 ha         1 462       0.123000
     41 H11          0.3300    -3.4670    -0.4830 h4         1 462       0.156000
     42 H141        -0.6690     1.2270     1.9720 hc         1 462       0.069700
     43 H142         0.9060     1.0970     1.2410 hc         1 462       0.069700
     44 HN1         -2.0910     2.6430     1.2370 hn         1 462       0.310500
     45 HN2         -2.9720     4.7440    -1.7920 hn         1 462       0.381400
     46 HN31        -2.3740     4.8320     1.4090 hn         1 462       0.468000
     47 HN32        -3.2210     5.5540     0.1300 hn         1 462       0.468000
     48 H18         -2.4960     0.3330     2.6390 ha         1 462       0.124000
     49 H19         -4.5810     1.4940     3.2720 ha         1 462       0.120000
     50 H20         -6.4440     1.7130     1.6310 ha         1 462       0.117000
     51 H21         -6.1880     0.7780    -0.6640 ha         1 462       0.135000
@<TRIPOS>BOND
     1     1     2 1   
     2     1    30 1   
     3     1    31 1   
     4     1    32 1   
     5     2     3 1   
     6     2    33 1   
     7     2    34 1   
     8     3     4 1   
     9     3    35 1   
    10     3    36 1   
    11     4     5 1   
    12     5     6 ar  
    13     5    10 ar  
    14     6     7 ar  
    15     6    37 1   
    16     7     8 ar  
    17     7    38 1   
    18     8     9 ar  
    19     8    11 1   
    20     9    10 ar  
    21     9    39 1   
    22    10    40 1   
    23    11    12 2   
    24    11    15 1   
    25    12    13 1   
    26    12    41 1   
    27    13    14 1   
    28    14    15 2   
    29    14    23 1   
    30    15    16 1   
    31    16    17 1   
    32    16    42 1   
    33    16    43 1   
    34    17    18 2   
    35    17    19 1   
    36    19    20 1   
    37    19    44 1   
    38    20    21 2   
    39    20    22 1   
    40    21    45 1   
    41    22    46 1   
    42    22    47 1   
    43    23    24 ar  
    44    23    28 ar  
    45    24    25 ar  
    46    24    48 1   
    47    25    26 ar  
    48    25    49 1   
    49    26    27 ar  
    50    26    50 1   
    51    27    28 ar  
    52    27    51 1   
    53    28    29 1   
@<TRIPOS>SUBSTRUCTURE
     1 462         1 TEMP              0 ****  ****    0 ROOT
