@<TRIPOS>MOLECULE
462
   51    53     1     0     0
SMALL
bcc


@<TRIPOS>ATOM
      1 C1           9.0730     0.6340    -0.5750 c3         1 462      -0.090100
      2 C2           8.2130    -0.4700     0.0260 c3         1 462      -0.081400
      3 C3           6.7470    -0.2450    -0.2810 c3         1 462       0.140400
      4 O1           6.0010    -1.3080     0.2920 os         1 462      -0.327900
      5 C4           4.6600    -1.2910     0.1970 ca         1 462       0.151100
      6 C5           3.9810    -2.3460     0.8130 ca         1 462      -0.197000
      7 C6           2.6020    -2.4010     0.7790 ca         1 462      -0.078000
      8 C7           1.8490    -1.4160     0.1320 ca         1 462      -0.070000
      9 C8           2.5380    -0.3790    -0.4890 ca         1 462      -0.078000
     10 C9           3.9260    -0.3070    -0.4610 ca         1 462      -0.197000
     11 C10          0.3790    -1.5100     0.1070 cc         1 462      -0.025000
     12 C11         -0.2770    -2.6550    -0.2470 cd         1 462      -0.116100
     13 S1          -1.9730    -2.5050    -0.1090 ss         1 462      -0.034800
     14 C12         -1.8380    -0.8830     0.4380 cd         1 462      -0.039100
     15 C13         -0.5350    -0.4770     0.5030 cc         1 462      -0.064300
     16 C14         -0.1550     0.9000     0.9640 c3         1 462      -0.101100
     17 C15         -0.4760     1.9350    -0.1070 c          1 462       0.688100
     18 O2           0.0530     1.9080    -1.1950 o          1 462      -0.524100
     19 N1          -1.4130     2.8490     0.2800 ns         1 462      -0.516400
     20 C16         -1.9720     3.8840    -0.4810 c2         1 462       0.674800
     21 N2          -1.3600     4.3650    -1.4860 n2         1 462      -0.823100
     22 N3          -3.2030     4.2500    -0.0170 nv         1 462      -1.000800
     23 C17         -3.0280    -0.1100     0.8250 ca         1 462      -0.016000
     24 C18         -3.3990    -0.0320     2.1670 ca         1 462      -0.113000
     25 C19         -4.4940     0.7190     2.5670 ca         1 462      -0.138000
     26 C20         -5.2440     1.4000     1.6180 ca         1 462      -0.127000
     27 C21         -4.8980     1.3360     0.2760 ca         1 462      -0.124000
     28 C22         -3.7970     0.5860    -0.1060 ca         1 462       0.042400
     29 CL1         -3.3550     0.5430    -1.7760 cl         1 462      -0.074400
     30 H11A        10.1260     0.4770    -0.3430 hc         1 462       0.036033
     31 H12          8.9750     0.6670    -1.6610 hc         1 462       0.036033
     32 H13          8.7920     1.6140    -0.1870 hc         1 462       0.036033
     33 H21A         8.5240    -1.4390    -0.3720 hc         1 462       0.054200
     34 H22          8.3560    -0.5060     1.1080 hc         1 462       0.054200
     35 H31          6.4190     0.7170     0.1310 h1         1 462       0.035200
     36 H32          6.5880    -0.2100    -1.3660 h1         1 462       0.035200
     37 H5           4.5450    -3.1160     1.3260 ha         1 462       0.141000
     38 H6           2.0960    -3.2170     1.2790 ha         1 462       0.145000
     39 H8           1.9900     0.3900    -1.0180 ha         1 462       0.145000
     40 H9           4.4110     0.5200    -0.9610 ha         1 462       0.141000
     41 H11          0.1610    -3.5790    -0.5920 h4         1 462       0.174000
     42 H141        -0.6520     1.1300     1.9080 hc         1 462       0.069700
     43 H142         0.9170     0.9510     1.1630 hc         1 462       0.069700
     44 HN1         -1.8000     2.7140     1.2000 hn         1 462       0.310500
     45 HN2         -1.9330     5.0760    -1.9300 hn         1 462       0.381400
     46 HN31        -3.5360     3.9130     0.8700 hn         1 462       0.412800
     47 HN32        -3.5400     5.1650    -0.2650 hn         1 462       0.412800
     48 H18         -2.8130    -0.5700     2.9010 ha         1 462       0.142000
     49 H19         -4.7620     0.7690     3.6130 ha         1 462       0.138000
     50 H20         -6.1020     1.9870     1.9170 ha         1 462       0.135000
     51 H21         -5.4720     1.8740    -0.4650 ha         1 462       0.153000
@<TRIPOS>BOND
     1     1     2 1   
     2     1    30 1   
     3     1    31 1   
     4     1    32 1   
     5     2     3 1   
     6     2    33 1   
     7     2    34 1   
     8     3     4 1   
     9     3    35 1   
    10     3    36 1   
    11     4     5 1   
    12     5     6 ar  
    13     5    10 ar  
    14     6     7 ar  
    15     6    37 1   
    16     7     8 ar  
    17     7    38 1   
    18     8     9 ar  
    19     8    11 1   
    20     9    10 ar  
    21     9    39 1   
    22    10    40 1   
    23    11    12 2   
    24    11    15 1   
    25    12    13 1   
    26    12    41 1   
    27    13    14 1   
    28    14    15 2   
    29    14    23 1   
    30    15    16 1   
    31    16    17 1   
    32    16    42 1   
    33    16    43 1   
    34    17    18 2   
    35    17    19 1   
    36    19    20 1   
    37    19    44 1   
    38    20    21 2   
    39    20    22 1   
    40    21    45 1   
    41    22    46 1   
    42    22    47 1   
    43    23    24 ar  
    44    23    28 ar  
    45    24    25 ar  
    46    24    48 1   
    47    25    26 ar  
    48    25    49 1   
    49    26    27 ar  
    50    26    50 1   
    51    27    28 ar  
    52    27    51 1   
    53    28    29 1   
@<TRIPOS>SUBSTRUCTURE
     1 462         1 TEMP              0 ****  ****    0 ROOT
