@<TRIPOS>MOLECULE
463
   24    24     1     0     0
SMALL
No Charge or Current Charge


@<TRIPOS>ATOM
      1 C4           1.2970     2.2080    -0.1520 ca         1 463      -0.084000
      2 C5           2.2240     1.1660    -0.3110 ca         1 463      -0.141000
      3 C6           1.7920    -0.1730    -0.3010 ca         1 463      -0.061300
      4 C7           2.7970    -1.3070    -0.4780 c3         1 463       0.196100
      5 C8           0.4220    -0.4600    -0.1320 ca         1 463      -0.111000
      6 O           -2.2600    -1.9160     0.0120 o          1 463      -0.575100
      7 C1          -2.6910    -0.7840     0.1980 c          1 463       0.606100
      8 C           -4.1760    -0.5320     0.4470 c3         1 463      -0.183100
      9 C2          -0.5190     0.5830     0.0250 ca         1 463      -0.023000
     10 C3          -0.0660     1.9160     0.0150 ca         1 463      -0.171000
     11 H1           1.6350     3.2420    -0.1590 ha         1 463       0.111000
     12 H2           3.2790     1.4000    -0.4400 ha         1 463       0.110000
     13 H3           3.9270    -2.5900     0.6570 hn         1 463       0.397000
     14 H4           3.6420    -1.1750     1.3820 hn         1 463       0.397000
     15 H6           2.3610    -2.0930    -1.1110 h1         1 463       0.034200
     16 H7           3.6990    -0.9300    -0.9780 h1         1 463       0.034200
     17 H8           0.1150    -1.5010    -0.1200 ha         1 463       0.167000
     18 H9          -4.2920     0.0150     1.3900 hc         1 463       0.062033
     19 H10         -4.5420     0.1940    -0.2890 hc         1 463       0.062033
     20 H11         -4.7690    -1.4530     0.4370 hc         1 463       0.062033
     21 H12         -2.4400     1.2170     0.3610 hn         1 463       0.146000
     22 H13         -0.7740     2.7320     0.1370 ha         1 463       0.106000
     23 N           -1.9140     0.3670     0.2020 ns         1 463      -0.149000
     24 N1           3.1840    -1.8990     0.8170 n8         1 463      -0.994200
@<TRIPOS>BOND
     1     1     2 ar  
     2     1    10 ar  
     3     1    11 1   
     4     2     3 ar  
     5     2    12 1   
     6     3     4 1   
     7     3     5 ar  
     8     4    15 1   
     9     4    16 1   
    10     4    24 1   
    11     5     9 ar  
    12     5    17 1   
    13     6     7 2   
    14     7     8 1   
    15     7    23 1   
    16     8    18 1   
    17     8    19 1   
    18     8    20 1   
    19     9    10 ar  
    20     9    23 1   
    21    10    22 1   
    22    13    24 1   
    23    14    24 1   
    24    21    23 1   
@<TRIPOS>SUBSTRUCTURE
     1 463         1 TEMP              0 ****  ****    0 ROOT
