@<TRIPOS>MOLECULE
463
   24    24     1     0     0
SMALL
abcg2


@<TRIPOS>ATOM
      1 C4           1.2580     2.3120    -0.2690 ca         1 463      -0.084000
      2 C5           2.2220     1.3160    -0.3460 ca         1 463      -0.141000
      3 C6           1.8510    -0.0190    -0.2340 ca         1 463      -0.061300
      4 C7           2.8970    -1.1000    -0.3620 c3         1 463       0.196100
      5 C8           0.5130    -0.3520    -0.0350 ca         1 463      -0.111000
      6 O           -1.9700    -1.8630     0.2810 o          1 463      -0.575100
      7 C1          -2.4950    -0.7650     0.3410 c          1 463       0.606100
      8 C           -3.9870    -0.6080     0.5040 c3         1 463      -0.183100
      9 C2          -0.4560     0.6480     0.0460 ca         1 463      -0.023000
     10 C3          -0.0720     1.9860    -0.0740 ca         1 463      -0.171000
     11 H1           1.5440     3.3520    -0.3540 ha         1 463       0.111000
     12 H2           3.2630     1.5790    -0.4920 ha         1 463       0.110000
     13 H3           3.2230    -3.0310     0.1480 hn         1 463       0.397000
     14 H4           2.6220    -2.1410     1.3590 hn         1 463       0.397000
     15 H6           2.9900    -1.3620    -1.4200 h1         1 463       0.034200
     16 H7           3.8690    -0.6750    -0.0760 h1         1 463       0.034200
     17 H8           0.2480    -1.3910     0.0680 ha         1 463       0.167000
     18 H9          -4.2980     0.4040     0.7580 hc         1 463       0.062033
     19 H10         -4.4780    -0.8890    -0.4290 hc         1 463       0.062033
     20 H11         -4.3420    -1.2870     1.2770 hc         1 463       0.062033
     21 H12         -2.3830     1.2420     0.3180 hn         1 463       0.146000
     22 H13         -0.8160     2.7710    -0.0100 ha         1 463       0.106000
     23 N           -1.8200     0.4090     0.2490 ns         1 463      -0.149000
     24 N1           2.5490    -2.3080     0.3630 n8         1 463      -0.994200
@<TRIPOS>BOND
     1     1     2 ar  
     2     1    10 ar  
     3     1    11 1   
     4     2     3 ar  
     5     2    12 1   
     6     3     4 1   
     7     3     5 ar  
     8     4    15 1   
     9     4    16 1   
    10     4    24 1   
    11     5     9 ar  
    12     5    17 1   
    13     6     7 2   
    14     7     8 1   
    15     7    23 1   
    16     8    18 1   
    17     8    19 1   
    18     8    20 1   
    19     9    10 ar  
    20     9    23 1   
    21    10    22 1   
    22    13    24 1   
    23    14    24 1   
    24    21    23 1   
@<TRIPOS>SUBSTRUCTURE
     1 463         1 TEMP              0 ****  ****    0 ROOT
