@<TRIPOS>MOLECULE
464
   67    71     1     0     0
SMALL
abcg2


@<TRIPOS>ATOM
      1 C38         -1.6540     5.1130     0.7370 c6         1 464       0.165800
      2 C39         -0.9660     6.3410     1.3140 c6         1 464      -0.075900
      3 C40          0.5390     6.2880     1.0760 c6         1 464      -0.074400
      4 C41          1.0970     4.9620     1.5760 c6         1 464      -0.075900
      5 C42          0.3290     3.7960     0.9740 c6         1 464       0.165800
      6 N37         -1.0870     3.8910     1.2840 n3         1 464      -0.723600
      7 C36         -1.7960     2.7010     0.8700 c3         1 464       0.140800
      8 C35         -3.1920     2.5930     1.4870 c3         1 464       0.100000
      9 N33         -3.7290     1.2650     1.3070 ns         1 464      -0.506900
     10 C31         -4.4920     0.8880     0.2660 c          1 464       0.614700
     11 O32         -4.9800     1.6740    -0.5350 o          1 464      -0.601100
     12 C29         -4.7180    -0.5860     0.1470 ca         1 464      -0.149600
     13 C30         -3.7200    -1.4900     0.4920 ca         1 464      -0.091000
     14 C28         -5.9270    -1.0560    -0.3580 ca         1 464      -0.065000
     15 C27         -6.1260    -2.4240    -0.4790 ca         1 464      -0.118000
     16 C26         -5.1250    -3.3200    -0.1330 ca         1 464      -0.094000
     17 C25         -3.8970    -2.8670     0.3550 ca         1 464       0.011000
     18 C23         -2.8150    -3.7780     0.7200 cc         1 464      -0.120000
     19 C24         -1.4400    -3.4400     0.8700 cc         1 464      -0.150000
     20 C22         -2.9200    -5.1210     1.0180 cd         1 464      -0.168000
     21 N20         -1.6830    -5.5780     1.3350 na         1 464      -0.094000
     22 C19         -0.7670    -4.5730     1.2460 cd         1 464      -0.182300
     23 C18          0.6740    -4.7520     1.6020 c3         1 464       0.058100
     24 C4           0.8600    -4.6250     3.0730 cc         1 464      -0.170400
     25 C6           1.1610    -3.5630     3.8400 ca         1 464      -0.062000
     26 C7           1.4630    -2.1970     3.5420 ca         1 464      -0.128000
     27 C2           0.6240    -5.7540     4.0410 c          1 464       0.667700
     28 O3           0.3060    -6.8760     3.7440 o          1 464      -0.463100
     29 N1           0.8230    -5.3120     5.3690 nc         1 464      -0.316400
     30 C5           1.1270    -4.0630     5.2420 ca         1 464       0.070000
     31 C10          1.4230    -3.1340     6.2960 ca         1 464      -0.091000
     32 C9           1.7020    -1.8640     5.9600 ca         1 464      -0.092000
     33 C8           1.7280    -1.3620     4.5800 ca         1 464      -0.013000
     34 N11          2.0430    -0.0210     4.5060 ns         1 464      -0.160000
     35 C13          2.0690     0.7810     3.3820 c          1 464       0.657100
     36 O17          1.7550     0.3820     2.2730 o          1 464      -0.617100
     37 N14          2.4350     2.0570     3.6390 nt         1 464      -0.604000
     38 H381        -2.7200     5.1570     0.9690 h1         1 464       0.034450
     39 H382        -1.5710     5.1310    -0.3650 h1         1 464       0.034450
     40 H391        -1.1670     6.3920     2.3880 hc         1 464       0.041450
     41 H392        -1.3970     7.2390     0.8660 hc         1 464       0.041450
     42 H401         0.7400     6.3850     0.0040 hc         1 464       0.038700
     43 H402         1.0360     7.1280     1.5650 hc         1 464       0.038700
     44 H411         2.1580     4.8680     1.3290 hc         1 464       0.041450
     45 H412         1.0160     4.9150     2.6670 hc         1 464       0.041450
     46 H421         0.5020     3.7700    -0.1180 h1         1 464       0.034450
     47 H422         0.7070     2.8500     1.3680 h1         1 464       0.034450
     48 H361        -1.8750     2.6110    -0.2270 h1         1 464       0.040700
     49 H362        -1.2190     1.8360     1.2100 h1         1 464       0.040700
     50 H351        -3.1300     2.8000     2.5560 h1         1 464       0.062200
     51 H352        -3.8870     3.3110     1.0540 h1         1 464       0.062200
     52 HN33        -3.4140     0.5590     1.9510 hn         1 464       0.315500
     53 H30         -2.7700    -1.1240     0.8620 ha         1 464       0.113000
     54 H28         -6.7070    -0.3630    -0.6410 ha         1 464       0.131000
     55 H27         -7.0670    -2.7980    -0.8600 ha         1 464       0.114000
     56 H26         -5.2980    -4.3810    -0.2620 ha         1 464       0.110000
     57 H24         -0.9830    -2.4770     0.7040 ha         1 464       0.135000
     58 H22         -3.7770    -5.7750     1.0420 h4         1 464       0.149000
     59 HN20        -1.4730    -6.5290     1.5960 hn         1 464       0.356000
     60 H181         1.0390    -5.7230     1.2580 hc         1 464       0.071700
     61 H182         1.2620    -3.9940     1.0850 hc         1 464       0.071700
     62 H7           1.4760    -1.8620     2.5190 ha         1 464       0.162000
     63 H10          1.4110    -3.4550     7.3280 ha         1 464       0.145000
     64 H9           1.9170    -1.1540     6.7500 ha         1 464       0.113000
     65 HN11         2.2680     0.4200     5.3850 hn         1 464       0.149000
     66 H141         2.8830     2.3200     4.5010 hn         1 464       0.316500
     67 H142         2.6330     2.6480     2.8490 hn         1 464       0.316500
@<TRIPOS>BOND
     1     1     2 1   
     2     1     6 1   
     3     1    38 1   
     4     1    39 1   
     5     2     3 1   
     6     2    40 1   
     7     2    41 1   
     8     3     4 1   
     9     3    42 1   
    10     3    43 1   
    11     4     5 1   
    12     4    44 1   
    13     4    45 1   
    14     5     6 1   
    15     5    46 1   
    16     5    47 1   
    17     6     7 1   
    18     7     8 1   
    19     7    48 1   
    20     7    49 1   
    21     8     9 1   
    22     8    50 1   
    23     8    51 1   
    24     9    10 1   
    25     9    52 1   
    26    10    11 2   
    27    10    12 1   
    28    12    13 ar  
    29    12    14 ar  
    30    13    17 ar  
    31    13    53 1   
    32    14    15 ar  
    33    14    54 1   
    34    15    16 ar  
    35    15    55 1   
    36    16    17 ar  
    37    16    56 1   
    38    17    18 1   
    39    18    19 1   
    40    18    20 2   
    41    19    22 2   
    42    19    57 1   
    43    20    21 1   
    44    20    58 1   
    45    21    22 1   
    46    21    59 1   
    47    22    23 1   
    48    23    24 1   
    49    23    60 1   
    50    23    61 1   
    51    24    25 2   
    52    24    27 1   
    53    25    26 ar  
    54    25    30 ar  
    55    26    33 ar  
    56    26    62 1   
    57    27    28 2   
    58    27    29 1   
    59    29    30 2   
    60    30    31 ar  
    61    31    32 ar  
    62    31    63 1   
    63    32    33 ar  
    64    32    64 1   
    65    33    34 1   
    66    34    35 1   
    67    34    65 1   
    68    35    36 2   
    69    35    37 1   
    70    37    66 1   
    71    37    67 1   
@<TRIPOS>SUBSTRUCTURE
     1 464         1 TEMP              0 ****  ****    0 ROOT
