@<TRIPOS>MOLECULE
464
   67    71     1     0     0
SMALL
No Charge or Current Charge


@<TRIPOS>ATOM
      1 C38         -1.3300     5.2530     1.4510 c6         1 464       0.165800
      2 C39         -0.3840     6.2700     2.1360 c6         1 464      -0.075900
      3 C40          0.8470     6.5680     1.2520 c6         1 464      -0.074400
      4 C41          1.5470     5.2480     0.8550 c6         1 464      -0.075900
      5 C42          0.5460     4.2630     0.2050 c6         1 464       0.165800
      6 N37         -0.6150     3.9920     1.0990 n3         1 464      -0.723600
      7 C36         -1.5080     2.9440     0.5410 c3         1 464       0.140800
      8 C35         -2.6150     2.4630     1.5100 c3         1 464       0.100000
      9 N33         -3.0680     1.1050     1.1960 ns         1 464      -0.506900
     10 C31         -4.1640     0.7790     0.4290 c          1 464       0.614700
     11 O32         -4.9130     1.6390    -0.0160 o          1 464      -0.601100
     12 C29         -4.3770    -0.6990     0.1690 ca         1 464      -0.149600
     13 C30         -3.3990    -1.6620     0.5170 ca         1 464      -0.091000
     14 C28         -5.5730    -1.1430    -0.4340 ca         1 464      -0.065000
     15 C27         -5.7890    -2.5110    -0.6620 ca         1 464      -0.118000
     16 C26         -4.8140    -3.4560    -0.3000 ca         1 464      -0.094000
     17 C25         -3.6010    -3.0400     0.2900 ca         1 464       0.011000
     18 C23         -2.5460    -3.9960     0.6680 cc         1 464      -0.120000
     19 C24         -1.2550    -3.7320     1.1630 cc         1 464      -0.150000
     20 C22         -2.7250    -5.3560     0.6310 cd         1 464      -0.168000
     21 N20         -1.5280    -5.9240     1.1000 na         1 464      -0.094000
     22 C19         -0.6170    -4.9090     1.4280 cd         1 464      -0.182300
     23 C18          0.7730    -5.1330     1.9690 c3         1 464       0.058100
     24 C4           0.8740    -4.8450     3.4460 cc         1 464      -0.170400
     25 C6           0.9240    -3.6010     4.1550 ca         1 464      -0.062000
     26 C7           0.9010    -2.2780     3.6950 ca         1 464      -0.128000
     27 C2           0.9130    -5.9200     4.4590 c          1 464       0.667700
     28 O3           0.8820    -7.1280     4.2610 o          1 464      -0.463100
     29 N1           0.9940    -5.3000     5.7100 nc         1 464      -0.316400
     30 C5           0.9960    -3.9230     5.4950 ca         1 464       0.070000
     31 C10          1.0610    -2.9080     6.4580 ca         1 464      -0.091000
     32 C9           1.0340    -1.5620     6.0280 ca         1 464      -0.092000
     33 C8           0.9360    -1.2380     4.6530 ca         1 464      -0.013000
     34 N11          0.8870     0.1330     4.2850 ns         1 464      -0.160000
     35 C13          0.4030     0.7480     3.1440 c          1 464       0.657100
     36 O17         -0.1510     0.1800     2.2180 o          1 464      -0.617100
     37 N14          0.5680     2.0860     3.1390 nt         1 464      -0.604000
     38 H381        -2.1660     5.0490     2.1360 h1         1 464       0.034450
     39 H382        -1.7580     5.7110     0.5470 h1         1 464       0.034450
     40 H391        -0.0580     5.8680     3.1050 hc         1 464       0.041450
     41 H392        -0.9290     7.2000     2.3480 hc         1 464       0.041450
     42 H401         0.5330     7.1070     0.3470 hc         1 464       0.038700
     43 H402         1.5480     7.2240     1.7860 hc         1 464       0.038700
     44 H411         2.3720     5.4540     0.1600 hc         1 464       0.041450
     45 H412         1.9940     4.7820     1.7440 hc         1 464       0.041450
     46 H421         0.1990     4.6820    -0.7510 h1         1 464       0.034450
     47 H422         1.0760     3.3270    -0.0250 h1         1 464       0.034450
     48 H361        -1.9790     3.2920    -0.3880 h1         1 464       0.040700
     49 H362        -0.8970     2.0700     0.2790 h1         1 464       0.040700
     50 H351        -2.2150     2.4500     2.5320 h1         1 464       0.062200
     51 H352        -3.4610     3.1620     1.4910 h1         1 464       0.062200
     52 HN33        -2.4930     0.3370     1.5180 hn         1 464       0.315500
     53 H30         -2.4670    -1.3430     0.9680 ha         1 464       0.113000
     54 H28         -6.3440    -0.4280    -0.7180 ha         1 464       0.131000
     55 H27         -6.7180    -2.8420    -1.1230 ha         1 464       0.114000
     56 H26         -5.0090    -4.5060    -0.4950 ha         1 464       0.110000
     57 H24         -0.8330    -2.7440     1.3030 ha         1 464       0.135000
     58 H22         -3.5740    -5.9610     0.3340 h4         1 464       0.149000
     59 HN20        -1.3530    -6.9200     1.1920 hn         1 464       0.356000
     60 H181         1.0990    -6.1590     1.7590 hc         1 464       0.071700
     61 H182         1.4790    -4.4880     1.4320 hc         1 464       0.071700
     62 H7           0.8680    -2.0700     2.6300 ha         1 464       0.162000
     63 H10          1.1240    -3.1530     7.5150 ha         1 464       0.145000
     64 H9           1.0740    -0.7680     6.7700 ha         1 464       0.113000
     65 HN11         1.2660     0.7640     4.9780 hn         1 464       0.149000
     66 H141         1.0180     2.5480     3.9130 hn         1 464       0.316500
     67 H142         0.2050     2.6290     2.3620 hn         1 464       0.316500
@<TRIPOS>BOND
     1     1     2 1   
     2     1     6 1   
     3     1    38 1   
     4     1    39 1   
     5     2     3 1   
     6     2    40 1   
     7     2    41 1   
     8     3     4 1   
     9     3    42 1   
    10     3    43 1   
    11     4     5 1   
    12     4    44 1   
    13     4    45 1   
    14     5     6 1   
    15     5    46 1   
    16     5    47 1   
    17     6     7 1   
    18     7     8 1   
    19     7    48 1   
    20     7    49 1   
    21     8     9 1   
    22     8    50 1   
    23     8    51 1   
    24     9    10 1   
    25     9    52 1   
    26    10    11 2   
    27    10    12 1   
    28    12    13 ar  
    29    12    14 ar  
    30    13    17 ar  
    31    13    53 1   
    32    14    15 ar  
    33    14    54 1   
    34    15    16 ar  
    35    15    55 1   
    36    16    17 ar  
    37    16    56 1   
    38    17    18 1   
    39    18    19 1   
    40    18    20 2   
    41    19    22 2   
    42    19    57 1   
    43    20    21 1   
    44    20    58 1   
    45    21    22 1   
    46    21    59 1   
    47    22    23 1   
    48    23    24 1   
    49    23    60 1   
    50    23    61 1   
    51    24    25 2   
    52    24    27 1   
    53    25    26 ar  
    54    25    30 ar  
    55    26    33 ar  
    56    26    62 1   
    57    27    28 2   
    58    27    29 1   
    59    29    30 2   
    60    30    31 ar  
    61    31    32 ar  
    62    31    63 1   
    63    32    33 ar  
    64    32    64 1   
    65    33    34 1   
    66    34    35 1   
    67    34    65 1   
    68    35    36 2   
    69    35    37 1   
    70    37    66 1   
    71    37    67 1   
@<TRIPOS>SUBSTRUCTURE
     1 464         1 TEMP              0 ****  ****    0 ROOT
