@<TRIPOS>MOLECULE
466
   46    49     1     0     0
SMALL
bcc


@<TRIPOS>ATOM
      1 O1          86.5160     2.2930     8.3450 o          1 466      -0.575100
      2 C14         86.1580     1.1930     7.9650 c          1 466       0.689700
      3 C18         85.2750     1.0290     6.7720 ca         1 466      -0.151600
      4 C17         84.4540     2.1000     6.4200 ca         1 466      -0.088500
      5 C16         83.6300     2.0160     5.3100 ca         1 466      -0.137500
      6 C19         85.2730    -0.1170     5.9790 ca         1 466      -0.088500
      7 C20         84.4560    -0.1950     4.8610 ca         1 466      -0.137500
      8 C15         83.6290     0.8690     4.5280 ca         1 466      -0.105000
      9 N3          86.5160     0.0500     8.6040 ns         1 466      -0.474400
     10 C5          87.4180     0.0070     9.6660 cc         1 466       0.423500
     11 C6          87.4240     0.7590    10.8740 ca         1 466      -0.214900
     12 C7          88.5210     0.2420    11.5830 ca         1 466      -0.032200
     13 N2          89.0470    -0.7310    10.8040 na         1 466      -0.007100
     14 N1          88.3910    -0.8680     9.6520 nd         1 466      -0.553100
     15 C1          88.8830     0.7020    12.8510 ca         1 466      -0.146000
     16 C4          86.6430     1.7640    11.4630 ca         1 466      -0.031000
     17 C3          86.9880     2.2110    12.7140 ca         1 466      -0.163000
     18 C2          88.1080     1.6960    13.4170 cp         1 466       0.009000
     19 C11         88.4360     2.2240    14.7580 cp         1 466      -0.004000
     20 C10         87.4220     2.5130    15.6770 ca         1 466      -0.154000
     21 C9          87.7500     2.9940    16.9310 ca         1 466      -0.092000
     22 C12         89.7600     2.4360    15.1240 ca         1 466      -0.155000
     23 C13         90.0870     2.9240    16.3900 ca         1 466       0.146100
     24 C8          89.0730     3.2050    17.3030 ca         1 466      -0.215000
     25 O2          91.3990     3.0990    16.6310 os         1 466      -0.327900
     26 C21         91.8090     3.6030    17.8950 c3         1 466       0.143400
     27 C22         93.3140     3.7230    17.8850 c3         1 466      -0.095100
     28 H11         84.4550     2.9990     7.0220 ha         1 466       0.142000
     29 H10         82.9880     2.8490     5.0530 ha         1 466       0.136000
     30 H12         85.9290    -0.9510     6.1990 ha         1 466       0.142000
     31 H13         84.4730    -1.0850     4.2470 ha         1 466       0.136000
     32 H9          82.9900     0.8060     3.6570 ha         1 466       0.134000
     33 HN3         86.2020    -0.8390     8.2460 hn         1 466       0.333500
     34 H4          89.8380    -1.3220    11.0020 hn         1 466       0.329700
     35 H1          89.7260     0.2750    13.3800 ha         1 466       0.142000
     36 H3          85.7900     2.1820    10.9480 ha         1 466       0.149000
     37 H2          86.4020     2.9980    13.1690 ha         1 466       0.137000
     38 H6          86.3850     2.3390    15.4210 ha         1 466       0.137000
     39 H5          86.9650     3.2080    17.6450 ha         1 466       0.129000
     40 H7          90.5590     2.2420    14.4190 ha         1 466       0.147000
     41 H14         89.2890     3.5840    18.2930 ha         1 466       0.134000
     42 H15         91.3500     4.5800    18.0810 h1         1 466       0.033200
     43 H16         91.4840     2.9290    18.6950 h1         1 466       0.033200
     44 H18         93.6530     4.1060    18.8470 hc         1 466       0.047367
     45 H17         93.7900     2.7550    17.7230 hc         1 466       0.047367
     46 H19         93.6550     4.4110    17.1110 hc         1 466       0.047367
@<TRIPOS>BOND
     1     1     2 2   
     2     2     3 1   
     3     2     9 1   
     4     3     4 ar  
     5     3     6 ar  
     6     4     5 ar  
     7     4    28 1   
     8     5     8 ar  
     9     5    29 1   
    10     6     7 ar  
    11     6    30 1   
    12     7     8 ar  
    13     7    31 1   
    14     8    32 1   
    15     9    10 1   
    16     9    33 1   
    17    10    11 1   
    18    10    14 2   
    19    11    12 ar  
    20    11    16 ar  
    21    12    13 1   
    22    12    15 ar  
    23    13    14 1   
    24    13    34 1   
    25    15    18 ar  
    26    15    35 1   
    27    16    17 ar  
    28    16    36 1   
    29    17    18 ar  
    30    17    37 1   
    31    18    19 1   
    32    19    20 ar  
    33    19    22 ar  
    34    20    21 ar  
    35    20    38 1   
    36    21    24 ar  
    37    21    39 1   
    38    22    23 ar  
    39    22    40 1   
    40    23    24 ar  
    41    23    25 1   
    42    24    41 1   
    43    25    26 1   
    44    26    27 1   
    45    26    42 1   
    46    26    43 1   
    47    27    44 1   
    48    27    45 1   
    49    27    46 1   
@<TRIPOS>SUBSTRUCTURE
     1 466         1 TEMP              0 ****  ****    0 ROOT
