@<TRIPOS>MOLECULE
466
   46    49     1     0     0
SMALL
No Charge or Current Charge


@<TRIPOS>ATOM
      1 O1          86.4730     2.4320     8.3270 o          1 466      -0.575100
      2 C14         86.2280     1.3090     7.9100 c          1 466       0.622700
      3 C18         85.2080     1.0760     6.8110 ca         1 466      -0.151600
      4 C17         84.5880     2.1890     6.1940 ca         1 466      -0.070500
      5 C16         83.6370     2.0110     5.1740 ca         1 466      -0.119500
      6 C19         84.8400    -0.2240     6.3790 ca         1 466      -0.070500
      7 C20         83.8880    -0.3960     5.3580 ca         1 466      -0.119500
      8 C15         83.2880     0.7190     4.7540 ca         1 466      -0.087000
      9 N3          86.8760     0.1920     8.3810 ns         1 466      -0.407400
     10 C5          87.7550     0.0770     9.4280 cc         1 466       0.423500
     11 C6          87.7080     0.8260    10.6680 ca         1 466      -0.214900
     12 C7          88.7660     0.3560    11.3850 ca         1 466      -0.032200
     13 N2          89.3770    -0.6270    10.6320 na         1 466      -0.057400
     14 N1          88.7250    -0.8400     9.4090 nd         1 466      -0.553100
     15 C1          89.0510     0.7970    12.6820 ca         1 466      -0.128000
     16 C4          86.7970     1.7340    11.2310 ca         1 466      -0.013000
     17 C3          87.0630     2.2100    12.5330 ca         1 466      -0.145000
     18 C2          88.1950     1.7630    13.2810 cp         1 466       0.009000
     19 C11         88.4590     2.2700    14.6660 cp         1 466      -0.004000
     20 C10         87.3960     2.5900    15.5480 ca         1 466      -0.136000
     21 C9          87.6470     3.0640    16.8460 ca         1 466      -0.074000
     22 C12         89.7830     2.4460    15.1400 ca         1 466      -0.137000
     23 C13         90.0430     2.9200    16.4360 ca         1 466       0.146100
     24 C8          88.9670     3.2310    17.2930 ca         1 466      -0.197000
     25 O2          91.3620     3.0660    16.8160 os         1 466      -0.351100
     26 C21         91.7340     3.5460    18.1190 c3         1 466       0.166600
     27 C22         93.2700     3.5760    18.1820 c3         1 466      -0.095100
     28 H11         84.8430     3.2010     6.5020 ha         1 466       0.124000
     29 H10         83.1720     2.8770     4.7090 ha         1 466       0.118000
     30 H12         85.2710    -1.1150     6.8280 ha         1 466       0.124000
     31 H13         83.6140    -1.3980     5.0360 ha         1 466       0.118000
     32 H9          82.5510     0.5820     3.9650 ha         1 466       0.116000
     33 HN3         86.7720    -0.6250     7.8030 hn         1 466       0.333500
     34 H4          90.1860    -1.1810    10.9120 hn         1 466       0.380000
     35 H1          89.8970     0.3850    13.2270 ha         1 466       0.124000
     36 H3          85.9050     2.0600    10.7040 ha         1 466       0.131000
     37 H2          86.3810     2.9350    12.9690 ha         1 466       0.119000
     38 H6          86.3660     2.4550    15.2290 ha         1 466       0.119000
     39 H5          86.8150     3.2990    17.5070 ha         1 466       0.111000
     40 H7          90.6240     2.2250    14.4900 ha         1 466       0.129000
     41 H14         89.1340     3.5990    18.3010 ha         1 466       0.116000
     42 H15         91.3420     4.5570    18.2890 h1         1 466       0.033200
     43 H16         91.3500     2.8810    18.9040 h1         1 466       0.033200
     44 H18         93.6020     3.9370    19.1620 hc         1 466       0.047367
     45 H17         93.6820     2.5720    18.0270 hc         1 466       0.047367
     46 H19         93.6740     4.2450    17.4130 hc         1 466       0.047367
@<TRIPOS>BOND
     1     1     2 2   
     2     2     3 1   
     3     2     9 1   
     4     3     4 ar  
     5     3     6 ar  
     6     4     5 ar  
     7     4    28 1   
     8     5     8 ar  
     9     5    29 1   
    10     6     7 ar  
    11     6    30 1   
    12     7     8 ar  
    13     7    31 1   
    14     8    32 1   
    15     9    10 1   
    16     9    33 1   
    17    10    11 1   
    18    10    14 2   
    19    11    12 ar  
    20    11    16 ar  
    21    12    13 1   
    22    12    15 ar  
    23    13    14 1   
    24    13    34 1   
    25    15    18 ar  
    26    15    35 1   
    27    16    17 ar  
    28    16    36 1   
    29    17    18 ar  
    30    17    37 1   
    31    18    19 1   
    32    19    20 ar  
    33    19    22 ar  
    34    20    21 ar  
    35    20    38 1   
    36    21    24 ar  
    37    21    39 1   
    38    22    23 ar  
    39    22    40 1   
    40    23    24 ar  
    41    23    25 1   
    42    24    41 1   
    43    25    26 1   
    44    26    27 1   
    45    26    42 1   
    46    26    43 1   
    47    27    44 1   
    48    27    45 1   
    49    27    46 1   
@<TRIPOS>SUBSTRUCTURE
     1 466         1 TEMP              0 ****  ****    0 ROOT
