@<TRIPOS>MOLECULE
467
   44    46     1     0     0
SMALL
No Charge or Current Charge


@<TRIPOS>ATOM
      1 F3           1.3930     2.8300     0.2870 f          1 467      -0.169000
      2 C7           0.3560     1.9610     0.1960 ca         1 467      -0.026000
      3 C8          -0.9640     2.4300     0.1360 ca         1 467       0.114900
      4 N2          -2.0050     1.5790     0.0500 nb         1 467      -0.196000
      5 C9          -1.7290     0.2560     0.0230 ca         1 467       0.269800
      6 N3          -0.4850    -0.2770     0.0760 nb         1 467      -0.266000
      7 C6           0.5580     0.5670     0.1590 ca         1 467       0.370900
      8 N1           1.8600     0.0430     0.2230 nu         1 467      -0.931100
      9 C1           2.3350    -1.3720     0.4370 c3         1 467       0.186200
     10 C2           1.7730    -2.3180    -0.6560 c3         1 467      -0.099600
     11 C3           3.9190    -1.4500     0.3450 c          1 467       0.590100
     12 N            4.5010    -0.5400    -0.5200 ns         1 467      -0.510900
     13 C4           5.9550    -0.3450    -0.7000 c3         1 467       0.034000
     14 C5           6.5830     0.6690     0.2880 c3         1 467       0.278000
     15 F2           5.9850     1.8790     0.1850 f          1 467      -0.112667
     16 F1           6.4610     0.2520     1.5690 f          1 467      -0.112667
     17 F            7.8990     0.8330     0.0290 f          1 467      -0.112667
     18 O            4.6040    -2.2020     1.0290 o          1 467      -0.566100
     19 C            1.8700    -1.8120     1.8510 c3         1 467      -0.099600
     20 C10         -2.8630    -0.6810    -0.0610 cc         1 467      -0.220000
     21 C13         -4.2820    -0.4490    -0.1790 ca         1 467      -0.092800
     22 C14         -5.0230     0.7430    -0.2660 ca         1 467      -0.005000
     23 C15         -6.4180     0.6080    -0.3770 ca         1 467       0.030000
     24 Cl          -7.4410     2.0390    -0.4920 cl         1 467      -0.192000
     25 C16         -6.9810    -0.6900    -0.3950 ca         1 467       0.367900
     26 N5          -6.2400    -1.8280    -0.3110 nb         1 467      -0.672000
     27 C12         -4.9050    -1.6820    -0.2050 ca         1 467       0.354500
     28 N4          -3.9520    -2.6770    -0.1100 na         1 467      -0.315400
     29 C11         -2.6810    -2.0580    -0.0190 cd         1 467      -0.086100
     30 H1          -1.1940     3.4940     0.1590 h4         1 467       0.039100
     31 H2           2.5480     0.7720     0.4240 hn         1 467       0.502000
     32 H3           1.9750    -1.9180    -1.6570 hc         1 467       0.056033
     33 H4           2.2470    -3.3040    -0.5860 hc         1 467       0.056033
     34 H5           0.6950    -2.4740    -0.5580 hc         1 467       0.056033
     35 H6           3.8580     0.0200    -1.0710 hn         1 467       0.338500
     36 H7           6.4680    -1.3100    -0.5910 h1         1 467       0.092200
     37 H8           6.1380     0.0060    -1.7250 h1         1 467       0.092200
     38 H9           0.7780    -1.7870     1.9430 hc         1 467       0.056033
     39 H10          2.1940    -2.8370     2.0660 hc         1 467       0.056033
     40 H11          2.2920    -1.1550     2.6210 hc         1 467       0.056033
     41 H12         -4.5620     1.7250    -0.2520 ha         1 467       0.157000
     42 H13         -8.0590    -0.8210    -0.4800 h4         1 467       0.035100
     43 H14         -4.1460    -3.6700    -0.1050 hn         1 467       0.367000
     44 H15         -1.7640    -2.6370     0.0700 h4         1 467       0.230000
@<TRIPOS>BOND
     1     1     2 1   
     2     2     3 ar  
     3     2     7 ar  
     4     3     4 ar  
     5     3    30 1   
     6     4     5 ar  
     7     5     6 ar  
     8     5    20 1   
     9     6     7 ar  
    10     7     8 1   
    11     8     9 1   
    12     8    31 1   
    13     9    10 1   
    14     9    11 1   
    15     9    19 1   
    16    10    32 1   
    17    10    33 1   
    18    10    34 1   
    19    11    12 1   
    20    11    18 2   
    21    12    13 1   
    22    12    35 1   
    23    13    14 1   
    24    13    36 1   
    25    13    37 1   
    26    14    15 1   
    27    14    16 1   
    28    14    17 1   
    29    19    38 1   
    30    19    39 1   
    31    19    40 1   
    32    20    21 1   
    33    20    29 2   
    34    21    22 ar  
    35    21    27 ar  
    36    22    23 ar  
    37    22    41 1   
    38    23    24 1   
    39    23    25 ar  
    40    25    26 ar  
    41    25    42 1   
    42    26    27 ar  
    43    27    28 1   
    44    28    29 1   
    45    28    43 1   
    46    29    44 1   
@<TRIPOS>SUBSTRUCTURE
     1 467         1 TEMP              0 ****  ****    0 ROOT
