@<TRIPOS>MOLECULE
467
   44    46     1     0     0
SMALL
bcc


@<TRIPOS>ATOM
      1 F3           1.3930     2.8200     0.4140 f          1 467      -0.133900
      2 C7           0.3640     1.9660     0.2920 ca         1 467      -0.191700
      3 C8          -0.9190     2.4080     0.1810 ca         1 467       0.443200
      4 N2          -1.9460     1.5610     0.0580 nb         1 467      -0.722000
      5 C9          -1.6430     0.2710     0.0520 ca         1 467       0.795800
      6 N3          -0.4160    -0.2420     0.1570 nb         1 467      -0.792000
      7 C6           0.6130     0.5790     0.2760 ca         1 467       0.699200
      8 N1           1.8810     0.1180     0.3650 nu         1 467      -0.875900
      9 C1           2.2690    -1.2860     0.5270 c3         1 467       0.186200
     10 C2           1.7890    -2.1510    -0.6480 c3         1 467      -0.099600
     11 C3           3.8080    -1.3310     0.4780 c          1 467       0.657100
     12 N            4.3740    -0.5290    -0.4510 ns         1 467      -0.577900
     13 C4           5.7880    -0.4980    -0.6970 c3         1 467       0.034000
     14 C5           6.4520     0.6310     0.0620 c3         1 467       0.641900
     15 F2           5.9520     1.8250    -0.2850 f          1 467      -0.233967
     16 F1           6.2900     0.5170     1.3850 f          1 467      -0.233967
     17 F            7.7680     0.6650    -0.1790 f          1 467      -0.233967
     18 O            4.4500    -2.0750     1.1920 o          1 467      -0.566100
     19 C            1.7760    -1.8510     1.8550 c3         1 467      -0.099600
     20 C10         -2.7380    -0.6760    -0.0670 cc         1 467      -0.220000
     21 C13         -4.1380    -0.4010    -0.1910 ca         1 467      -0.158100
     22 C14         -4.9420     0.7340    -0.2460 ca         1 467      -0.023000
     23 C15         -6.3020     0.5230    -0.3700 ca         1 467      -0.126900
     24 CL          -7.3840     1.8740    -0.4470 cl         1 467      -0.100400
     25 C16         -6.8380    -0.7670    -0.4360 ca         1 467       0.433200
     26 N5          -6.0900    -1.8550    -0.3850 nb         1 467      -0.672000
     27 C12         -4.7910    -1.6520    -0.2660 ca         1 467       0.419800
     28 N4          -3.8360    -2.6230    -0.1920 na         1 467      -0.265100
     29 C11         -2.6160    -2.0460    -0.0720 cd         1 467      -0.036100
     30 H1          -1.1380     3.4710     0.1890 h4         1 467       0.039100
     31 H2           2.5400     0.7910     0.7260 hn         1 467       0.446800
     32 H3           2.0680    -1.7160    -1.6080 hc         1 467       0.056033
     33 H4           2.2410    -3.1410    -0.5790 hc         1 467       0.056033
     34 H5           0.7100    -2.2690    -0.6260 hc         1 467       0.056033
     35 H6           3.7800    -0.0070    -1.0750 hn         1 467       0.338500
     36 H7           6.2480    -1.4420    -0.4050 h1         1 467       0.092200
     37 H8           5.9680    -0.3560    -1.7620 h1         1 467       0.092200
     38 H9           0.6900    -1.8020     1.8920 hc         1 467       0.056033
     39 H10          2.0680    -2.8930     1.9700 hc         1 467       0.056033
     40 H11          2.1770    -1.2890     2.6990 hc         1 467       0.056033
     41 H12         -4.5230     1.7280    -0.1910 ha         1 467       0.175000
     42 H13         -7.9090    -0.9060    -0.5330 h4         1 467       0.035100
     43 H14         -4.0110    -3.6160    -0.2140 hn         1 467       0.316700
     44 H15         -1.7270    -2.6490     0.0060 h4         1 467       0.180000
@<TRIPOS>BOND
     1     1     2 1   
     2     2     3 ar  
     3     2     7 ar  
     4     3     4 ar  
     5     3    30 1   
     6     4     5 ar  
     7     5     6 ar  
     8     5    20 1   
     9     6     7 ar  
    10     7     8 1   
    11     8     9 1   
    12     8    31 1   
    13     9    10 1   
    14     9    11 1   
    15     9    19 1   
    16    10    32 1   
    17    10    33 1   
    18    10    34 1   
    19    11    12 1   
    20    11    18 2   
    21    12    13 1   
    22    12    35 1   
    23    13    14 1   
    24    13    36 1   
    25    13    37 1   
    26    14    15 1   
    27    14    16 1   
    28    14    17 1   
    29    19    38 1   
    30    19    39 1   
    31    19    40 1   
    32    20    21 1   
    33    20    29 2   
    34    21    22 ar  
    35    21    27 ar  
    36    22    23 ar  
    37    22    41 1   
    38    23    24 1   
    39    23    25 ar  
    40    25    26 ar  
    41    25    42 1   
    42    26    27 ar  
    43    27    28 1   
    44    28    29 1   
    45    28    43 1   
    46    29    44 1   
@<TRIPOS>SUBSTRUCTURE
     1 467         1 TEMP              0 ****  ****    0 ROOT
