@<TRIPOS>MOLECULE
468
   46    48     1     0     0
SMALL
abcg2


@<TRIPOS>ATOM
      1 C1          -1.4210     2.0640    -2.0410 c6         1 468      -0.072900
      2 C2          -0.8210     2.5930    -3.3400 c6         1 468      -0.089400
      3 C3           0.6830     2.3280    -3.3880 c6         1 468       0.119700
      4 C4           1.3830     2.9390    -2.1730 c6         1 468      -0.089400
      5 C5           0.7800     2.4110    -0.8740 c6         1 468      -0.072900
      6 C6          -0.7240     2.6580    -0.8210 c6         1 468      -0.077400
      7 C7           1.9710     2.0090    -5.4730 c          1 468       0.579000
      8 C8           2.3970     2.8650    -6.6470 c5         1 468      -0.154400
      9 C9           2.2910     4.2860    -6.1100 c5         1 468      -0.166700
     10 C10          1.1480     4.1600    -5.0860 c5         1 468       0.105000
     11 N11          1.2720     2.7920    -4.6270 n          1 468      -0.416800
     12 C12          3.5540     4.6860    -5.3730 c          1 468       0.603100
     13 N13          3.7800     6.0230    -5.3420 ns         1 468      -0.167000
     14 O14          4.2720     3.8720    -4.8220 o          1 468      -0.559100
     15 O15          2.1900     0.8170    -5.3340 o          1 468      -0.541000
     16 C15          4.8300     6.6490    -4.6440 ca         1 468      -0.030000
     17 C20          5.0670     6.3290    -3.3110 ca         1 468      -0.102000
     18 C19          6.0790     6.9690    -2.6160 ca         1 468      -0.090000
     19 C18          6.8420     7.9440    -3.2360 ca         1 468      -0.110000
     20 C17          6.5850     8.2560    -4.5620 ca         1 468       0.133000
     21 C16          5.6010     7.6110    -5.3110 ca         1 468      -0.090300
     22 C23          5.3570     7.9220    -6.7570 c3         1 468      -0.048800
     23 CL1          7.5480     9.5040    -5.2940 cl         1 468      -0.206000
     24 HN13         3.1810     6.6110    -5.9010 hn         1 468       0.154000
     25 H9           2.0390     5.0150    -6.8810 hc         1 468       0.070700
     26 H101         1.2350     4.8700    -4.2610 h1         1 468       0.050700
     27 H102         0.1820     4.3380    -5.5680 h1         1 468       0.050700
     28 H81          3.3840     2.5880    -7.0140 hc         1 468       0.084700
     29 H82          1.6840     2.7150    -7.4620 hc         1 468       0.084700
     30 H3           0.8410     1.2470    -3.3640 h1         1 468       0.085700
     31 H41          1.2790     4.0300    -2.1980 hc         1 468       0.044450
     32 H42          2.4530     2.7250    -2.2210 hc         1 468       0.044450
     33 H4           1.2740     2.8790    -0.0200 hc         1 468       0.042950
     34 H5           0.9740     1.3360    -0.7930 hc         1 468       0.042950
     35 H7          -1.1440     2.2340     0.0950 hc         1 468       0.039200
     36 H6          -0.9140     3.7360    -0.7810 hc         1 468       0.039200
     37 H8          -1.3230     0.9740    -2.0180 hc         1 468       0.042950
     38 H1          -2.4910     2.2790    -2.0120 hc         1 468       0.042950
     39 H2          -1.3060     2.1290    -4.2030 hc         1 468       0.044450
     40 H10         -1.0090     3.6710    -3.4130 hc         1 468       0.044450
     41 H18          7.6210     8.4610    -2.6940 ha         1 468       0.132000
     42 H19          6.2640     6.7200    -1.5800 ha         1 468       0.123000
     43 H20          4.4500     5.5970    -2.8090 ha         1 468       0.133000
     44 H231         6.2570     8.2780    -7.2510 hc         1 468       0.049367
     45 H232         5.0180     7.0390    -7.2970 hc         1 468       0.049367
     46 H233         4.5930     8.6940    -6.8770 hc         1 468       0.049367
@<TRIPOS>BOND
     1     1     2 1   
     2     1     6 1   
     3     1    37 1   
     4     1    38 1   
     5     2     3 1   
     6     2    39 1   
     7     2    40 1   
     8     3     4 1   
     9     3    11 1   
    10     3    30 1   
    11     4     5 1   
    12     4    31 1   
    13     4    32 1   
    14     5     6 1   
    15     5    33 1   
    16     5    34 1   
    17     6    35 1   
    18     6    36 1   
    19     7     8 1   
    20     7    11 1   
    21     7    15 2   
    22     8     9 1   
    23     8    28 1   
    24     8    29 1   
    25     9    10 1   
    26     9    12 1   
    27     9    25 1   
    28    10    11 1   
    29    10    26 1   
    30    10    27 1   
    31    12    13 1   
    32    12    14 2   
    33    13    16 1   
    34    13    24 1   
    35    16    17 ar  
    36    16    21 ar  
    37    17    18 ar  
    38    17    43 1   
    39    18    19 ar  
    40    18    42 1   
    41    19    20 ar  
    42    19    41 1   
    43    20    21 ar  
    44    20    23 1   
    45    21    22 1   
    46    22    44 1   
    47    22    45 1   
    48    22    46 1   
@<TRIPOS>SUBSTRUCTURE
     1 468         1 TEMP              0 ****  ****    0 ROOT
