@<TRIPOS>MOLECULE
468
   46    48     1     0     0
SMALL
No Charge or Current Charge


@<TRIPOS>ATOM
      1 C1          -1.7700     2.0300    -2.1390 c6         1 468      -0.072900
      2 C2          -1.0520     2.6540    -3.3620 c6         1 468      -0.089400
      3 C3           0.4160     2.1530    -3.4680 c6         1 468       0.119700
      4 C4           1.1800     2.4760    -2.1550 c6         1 468      -0.089400
      5 C5           0.4710     1.8590    -0.9240 c6         1 468      -0.072900
      6 C6          -1.0010     2.3300    -0.8290 c6         1 468      -0.077400
      7 C7           2.0890     2.0070    -5.3450 c          1 468       0.579000
      8 C8           2.5900     2.9740    -6.4140 c5         1 468      -0.154400
      9 C9           2.3840     4.3840    -5.7740 c5         1 468      -0.166700
     10 C10          1.0750     4.1740    -4.9460 c5         1 468       0.105000
     11 N11          1.1140     2.7230    -4.6470 n          1 468      -0.416800
     12 C12          3.5650     4.7350    -4.8230 c          1 468       0.603100
     13 N13          4.1080     5.9520    -5.2180 ns         1 468      -0.167000
     14 O14          3.9740     4.0520    -3.8920 o          1 468      -0.559100
     15 O15          2.5500     0.9280    -5.0020 o          1 468      -0.541000
     16 C15          5.1610     6.7470    -4.6820 ca         1 468      -0.030000
     17 C20          5.6330     6.5510    -3.3640 ca         1 468      -0.102000
     18 C19          6.6510     7.3610    -2.8390 ca         1 468      -0.090000
     19 C18          7.2020     8.3850    -3.6190 ca         1 468      -0.110000
     20 C17          6.7400     8.6010    -4.9260 ca         1 468       0.133000
     21 C16          5.7220     7.7830    -5.4760 ca         1 468      -0.090300
     22 C23          5.2350     8.0350    -6.9100 c3         1 468      -0.048800
     23 Cl1          7.4560     9.9290    -5.8440 cl         1 468      -0.206000
     24 HN13         3.6670     6.3550    -6.0350 hn         1 468       0.154000
     25 H9           2.2550     5.1670    -6.5310 hc         1 468       0.070700
     26 H101         1.0500     4.7940    -4.0400 h1         1 468       0.050700
     27 H102         0.1860     4.4090    -5.5460 h1         1 468       0.050700
     28 H81          3.6090     2.7330    -6.7370 hc         1 468       0.084700
     29 H82          1.9100     2.8890    -7.2680 hc         1 468       0.084700
     30 H3           0.3840     1.0580    -3.5830 h1         1 468       0.085700
     31 H41          1.2630     3.5640    -2.0230 hc         1 468       0.044450
     32 H42          2.2070     2.0920    -2.2180 hc         1 468       0.044450
     33 H4           1.0100     2.1340    -0.0060 hc         1 468       0.042950
     34 H5           0.5050     0.7620    -0.9890 hc         1 468       0.042950
     35 H7          -1.4980     1.8360     0.0170 hc         1 468       0.039200
     36 H6          -1.0310     3.4090    -0.6220 hc         1 468       0.039200
     37 H8          -1.8600     0.9430    -2.2760 hc         1 468       0.042950
     38 H1          -2.7940     2.4210    -2.0680 hc         1 468       0.042950
     39 H2          -1.5980     2.3980    -4.2800 hc         1 468       0.044450
     40 H10         -1.0800     3.7480    -3.2740 hc         1 468       0.044450
     41 H18          7.9840     9.0200    -3.2090 ha         1 468       0.132000
     42 H19          7.0040     7.2010    -1.8220 ha         1 468       0.123000
     43 H20          5.2100     5.7860    -2.7210 ha         1 468       0.133000
     44 H231         6.0600     8.3100    -7.5770 hc         1 468       0.049367
     45 H232         4.7710     7.1530    -7.3660 hc         1 468       0.049367
     46 H233         4.5010     8.8490    -6.9350 hc         1 468       0.049367
@<TRIPOS>BOND
     1     1     2 1   
     2     1     6 1   
     3     1    37 1   
     4     1    38 1   
     5     2     3 1   
     6     2    39 1   
     7     2    40 1   
     8     3     4 1   
     9     3    11 1   
    10     3    30 1   
    11     4     5 1   
    12     4    31 1   
    13     4    32 1   
    14     5     6 1   
    15     5    33 1   
    16     5    34 1   
    17     6    35 1   
    18     6    36 1   
    19     7     8 1   
    20     7    11 1   
    21     7    15 2   
    22     8     9 1   
    23     8    28 1   
    24     8    29 1   
    25     9    10 1   
    26     9    12 1   
    27     9    25 1   
    28    10    11 1   
    29    10    26 1   
    30    10    27 1   
    31    12    13 1   
    32    12    14 2   
    33    13    16 1   
    34    13    24 1   
    35    16    17 ar  
    36    16    21 ar  
    37    17    18 ar  
    38    17    43 1   
    39    18    19 ar  
    40    18    42 1   
    41    19    20 ar  
    42    19    41 1   
    43    20    21 ar  
    44    20    23 1   
    45    21    22 1   
    46    22    44 1   
    47    22    45 1   
    48    22    46 1   
@<TRIPOS>SUBSTRUCTURE
     1 468         1 TEMP              0 ****  ****    0 ROOT
