@<TRIPOS>MOLECULE
469
   66    69     1     0     0
SMALL
bcc


@<TRIPOS>ATOM
      1 CAC          7.0530     4.4190    -0.3590 c3         1 469       0.083300
      2 NBG          5.8620     3.5950    -0.3180 n          1 469      -0.465800
      3 CAD          4.8670     3.9900     0.6570 c3         1 469       0.083300
      4 CAV          5.6780     2.6230    -1.2160 c          1 469       0.580100
      5 OAG          6.4790     2.2950    -2.0810 o          1 469      -0.582100
      6 CAU          4.3540     1.8650    -1.1900 c          1 469       0.545300
      7 OAF          3.4200     2.2960    -1.8440 o          1 469      -0.509100
      8 CBB          4.3280     0.6250    -0.4650 cc         1 469      -0.247400
      9 CBC          3.2510    -0.3200    -0.3730 ca         1 469      -0.049800
     10 CAP          1.9650    -0.3980    -0.9030 ca         1 469      -0.044000
     11 CAQ          5.3510     0.1200     0.3170 cd         1 469      -0.026100
     12 NBJ          4.9840    -1.0470     0.8710 na         1 469      -0.037400
     13 CAE          5.7910    -1.8710     1.7430 c3         1 469       0.026600
     14 CBD          3.7040    -1.3500     0.4700 ca         1 469      -0.056200
     15 CAO          2.9250    -2.4520     0.7960 ca         1 469      -0.134000
     16 CAY          1.6610    -2.4990     0.2440 ca         1 469       0.066400
     17 CLA          0.6450    -3.8490     0.6290 cl         1 469      -0.095400
     18 CBA          1.1670    -1.4870    -0.5910 ca         1 469      -0.151600
     19 CAW         -0.1810    -1.6250    -1.2380 c          1 469       0.691700
     20 OAH         -0.3110    -2.4040    -2.1720 o          1 469      -0.583100
     21 NBI         -1.1730    -0.8530    -0.7610 n          1 469      -0.468800
     22 CBF         -2.4900    -0.8670    -1.3970 c6         1 469       0.108700
     23 CAS         -3.5590    -1.0470    -0.3250 c6         1 469       0.158800
     24 CAB         -2.7100     0.3840    -2.2400 c3         1 469      -0.101100
     25 CAT         -1.0410     0.0920     0.3350 c6         1 469       0.109000
     26 CBE         -2.1260    -0.1280     1.3840 c6         1 469       0.175500
     27 CAA         -1.8730    -1.3980     2.1980 c3         1 469      -0.125100
     28 NBH         -3.4210    -0.0580     0.7230 n3         1 469      -0.736600
     29 CAR         -4.5470    -0.0330     1.6290 c3         1 469       0.227100
     30 CAZ         -5.7830     0.5410     0.9820 ca         1 469      -0.105300
     31 CAM         -5.7000     1.6710     0.1710 ca         1 469      -0.091500
     32 CAK         -6.8330     2.2250    -0.4050 ca         1 469      -0.173000
     33 CAX         -8.0580     1.6330    -0.1590 ca         1 469       0.134900
     34 FAI         -9.1600     2.1640    -0.7170 f          1 469      -0.145900
     35 CAL         -8.1810     0.5100     0.6340 ca         1 469      -0.173000
     36 CAN         -7.0320    -0.0300     1.1980 ca         1 469      -0.091500
     37 HAC          7.8080     3.9680    -0.9950 h1         1 469       0.045533
     38 HACA         6.8190     5.4160    -0.7390 h1         1 469       0.045533
     39 HACB         7.4580     4.5230     0.6470 h1         1 469       0.045533
     40 HAD          4.4290     4.9550     0.3980 h1         1 469       0.045533
     41 HADA         4.0660     3.2610     0.7420 h1         1 469       0.045533
     42 HADB         5.3360     4.0770     1.6370 h1         1 469       0.045533
     43 HAP          1.5830     0.3840    -1.5450 ha         1 469       0.166000
     44 HAQ          6.3300     0.5320     0.5140 h4         1 469       0.176000
     45 HAE          5.2750    -2.0410     2.6860 h1         1 469       0.058700
     46 HAEA         6.0040    -2.8290     1.2730 h1         1 469       0.058700
     47 HAEB         6.7290    -1.3630     1.9460 h1         1 469       0.058700
     48 HAO          3.2820    -3.2410     1.4440 ha         1 469       0.152000
     49 HBF         -2.5300    -1.7380    -2.0490 h1         1 469       0.085700
     50 HAS         -4.5370    -0.9340    -0.7970 h1         1 469       0.045200
     51 HASA        -3.5170    -2.0780     0.0620 h1         1 469       0.045200
     52 HAB         -1.9190     0.4990    -2.9810 hc         1 469       0.043367
     53 HABA        -3.6580     0.3080    -2.7730 hc         1 469       0.043367
     54 HABB        -2.7480     1.2860    -1.6300 hc         1 469       0.043367
     55 HAT         -0.0640    -0.0060     0.8000 h1         1 469       0.056200
     56 HATA        -1.1130     1.1120    -0.0520 h1         1 469       0.056200
     57 HBE         -2.0670     0.7280     2.0640 h1         1 469       0.057700
     58 HAA         -0.9120    -1.3330     2.7090 hc         1 469       0.042033
     59 HAAA        -2.6380    -1.5370     2.9630 hc         1 469       0.042033
     60 HAAB        -1.8480    -2.2950     1.5800 hc         1 469       0.042033
     61 HAR         -4.7920    -1.0230     2.0460 h1         1 469       0.039200
     62 HARA        -4.2700     0.5920     2.4850 h1         1 469       0.039200
     63 HAM         -4.7320     2.1160    -0.0200 ha         1 469       0.140000
     64 HAK         -6.7650     3.1020    -1.0360 ha         1 469       0.149000
     65 HAL         -9.1500     0.0590     0.8040 ha         1 469       0.149000
     66 HAN         -7.1170    -0.9180     1.8130 ha         1 469       0.140000
@<TRIPOS>BOND
     1     1     2 1   
     2     1    37 1   
     3     1    38 1   
     4     1    39 1   
     5     2     3 1   
     6     2     4 1   
     7     3    40 1   
     8     3    41 1   
     9     3    42 1   
    10     4     5 2   
    11     4     6 1   
    12     6     7 2   
    13     6     8 1   
    14     8     9 1   
    15     8    11 2   
    16     9    10 ar  
    17     9    14 ar  
    18    10    18 ar  
    19    10    43 1   
    20    11    12 1   
    21    11    44 1   
    22    12    13 1   
    23    12    14 1   
    24    13    45 1   
    25    13    46 1   
    26    13    47 1   
    27    14    15 ar  
    28    15    16 ar  
    29    15    48 1   
    30    16    17 1   
    31    16    18 ar  
    32    18    19 1   
    33    19    20 2   
    34    19    21 1   
    35    21    22 1   
    36    21    25 1   
    37    22    23 1   
    38    22    24 1   
    39    22    49 1   
    40    23    28 1   
    41    23    50 1   
    42    23    51 1   
    43    24    52 1   
    44    24    53 1   
    45    24    54 1   
    46    25    26 1   
    47    25    55 1   
    48    25    56 1   
    49    26    27 1   
    50    26    28 1   
    51    26    57 1   
    52    27    58 1   
    53    27    59 1   
    54    27    60 1   
    55    28    29 1   
    56    29    30 1   
    57    29    61 1   
    58    29    62 1   
    59    30    31 ar  
    60    30    36 ar  
    61    31    32 ar  
    62    31    63 1   
    63    32    33 ar  
    64    32    64 1   
    65    33    34 1   
    66    33    35 ar  
    67    35    36 ar  
    68    35    65 1   
    69    36    66 1   
@<TRIPOS>SUBSTRUCTURE
     1 469         1 TEMP              0 ****  ****    0 ROOT
