@<TRIPOS>MOLECULE
469
   66    69     1     0     0
SMALL
No Charge or Current Charge


@<TRIPOS>ATOM
      1 CAC          6.9190     4.4090    -0.2430 c3         1 469       0.083300
      2 NBG          5.7260     3.5330    -0.2670 n          1 469      -0.398800
      3 CAD          4.8030     3.5730     0.8900 c3         1 469       0.083300
      4 CAV          5.4640     2.6960    -1.3830 c          1 469       0.513100
      5 OAG          6.2210     2.6960    -2.3550 o          1 469      -0.582100
      6 CAU          4.1770     1.7500    -1.3450 c          1 469       0.545300
      7 OAF          3.1490     2.0700    -1.9420 o          1 469      -0.509100
      8 CBB          4.2820     0.4910    -0.5560 cc         1 469      -0.247400
      9 CBC          3.2720    -0.5130    -0.3390 ca         1 469      -0.049800
     10 CAP          1.9470    -0.6010    -0.7920 ca         1 469      -0.026000
     11 CAQ          5.4230     0.0740     0.1300 cd         1 469      -0.076100
     12 NBJ          5.1400    -1.1550     0.7640 na         1 469      -0.066700
     13 CAE          6.0220    -1.9790     1.6020 c3         1 469       0.055900
     14 CBD          3.8270    -1.4780     0.4550 ca         1 469      -0.056200
     15 CAO          3.0890    -2.6020     0.8530 ca         1 469      -0.116000
     16 CAY          1.7540    -2.7240     0.4160 ca         1 469       0.158000
     17 ClA          0.8270    -4.1130     0.9820 cl         1 469      -0.187000
     18 CBA          1.1710    -1.7220    -0.4050 ca         1 469      -0.151600
     19 CAW         -0.2470    -1.8430    -0.8950 c          1 469       0.624700
     20 OAH         -0.6430    -2.8690    -1.4350 o          1 469      -0.583100
     21 NBI         -1.0580    -0.6870    -0.8410 n          1 469      -0.401800
     22 CBF         -2.4140    -0.6590    -1.4710 c6         1 469       0.108700
     23 CAS         -3.5390    -0.7660    -0.3970 c6         1 469       0.158800
     24 CAB         -2.6060     0.5890    -2.3760 c3         1 469      -0.101100
     25 CAT         -0.9130     0.3200     0.2570 c6         1 469       0.109000
     26 CBE         -2.0350     0.1880     1.3320 c6         1 469       0.175500
     27 CAA         -1.8090    -1.0850     2.2030 c3         1 469      -0.125100
     28 NBH         -3.3860     0.2510     0.6900 n3         1 469      -0.736600
     29 CAR         -4.5180     0.2770     1.6470 c3         1 469       0.227100
     30 CAZ         -5.8390     0.6610     0.9890 ca         1 469      -0.105300
     31 CAM         -5.9850     1.9270     0.3860 ca         1 469      -0.073500
     32 CAK         -7.1990     2.2840    -0.2280 ca         1 469      -0.155000
     33 CAX         -8.2690     1.3760    -0.2390 ca         1 469       0.170000
     34 FAI         -9.4350     1.7190    -0.8280 f          1 469      -0.181000
     35 CAL         -8.1340     0.1140     0.3580 ca         1 469      -0.155000
     36 CAN         -6.9200    -0.2450     0.9720 ca         1 469      -0.073500
     37 HAC          7.8140     3.8270    -0.4970 h1         1 469       0.045533
     38 HACA         6.7970     5.2180    -0.9740 h1         1 469       0.045533
     39 HACB         7.0590     4.8470     0.7530 h1         1 469       0.045533
     40 HAD          3.7730     3.7230     0.5430 h1         1 469       0.045533
     41 HADA         4.8630     2.6290     1.4470 h1         1 469       0.045533
     42 HADB         5.0650     4.3980     1.5650 h1         1 469       0.045533
     43 HAP          1.5260     0.1690    -1.4350 ha         1 469       0.148000
     44 HAQ          6.3990     0.5450     0.2200 h4         1 469       0.226000
     45 HAE          5.5840    -2.0880     2.6020 h1         1 469       0.058700
     46 HAEA         6.1420    -2.9700     1.1470 h1         1 469       0.058700
     47 HAEB         7.0050    -1.5010     1.6890 h1         1 469       0.058700
     48 HAO          3.5270    -3.3650     1.4910 ha         1 469       0.134000
     49 HBF         -2.5250    -1.5270    -2.1370 h1         1 469       0.085700
     50 HAS         -4.5100    -0.6520    -0.9010 h1         1 469       0.045200
     51 HASA        -3.5270    -1.7800     0.0270 h1         1 469       0.045200
     52 HAB         -1.8120     0.6510    -3.1300 hc         1 469       0.043367
     53 HABA        -3.5640     0.5440    -2.9060 hc         1 469       0.043367
     54 HABB        -2.5940     1.5200    -1.7980 hc         1 469       0.043367
     55 HAT          0.0590     0.2350     0.7580 h1         1 469       0.056200
     56 HATA        -0.9520     1.3290    -0.1770 h1         1 469       0.056200
     57 HBE         -1.9260     1.0480     2.0090 h1         1 469       0.057700
     58 HAA         -0.8050    -1.0790     2.6450 hc         1 469       0.042033
     59 HAAA        -2.5220    -1.1380     3.0340 hc         1 469       0.042033
     60 HAAB        -1.9010    -2.0090     1.6210 hc         1 469       0.042033
     61 HAR         -4.6280    -0.7030     2.1310 h1         1 469       0.039200
     62 HARA        -4.3140     1.0070     2.4420 h1         1 469       0.039200
     63 HAM         -5.1530     2.6280     0.3890 ha         1 469       0.122000
     64 HAK         -7.3100     3.2590    -0.6940 ha         1 469       0.131000
     65 HAL         -8.9670    -0.5840     0.3450 ha         1 469       0.131000
     66 HAN         -6.8190    -1.2270     1.4310 ha         1 469       0.122000
@<TRIPOS>BOND
     1     1     2 1   
     2     1    37 1   
     3     1    38 1   
     4     1    39 1   
     5     2     3 1   
     6     2     4 1   
     7     3    40 1   
     8     3    41 1   
     9     3    42 1   
    10     4     5 2   
    11     4     6 1   
    12     6     7 2   
    13     6     8 1   
    14     8     9 1   
    15     8    11 2   
    16     9    10 ar  
    17     9    14 ar  
    18    10    18 ar  
    19    10    43 1   
    20    11    12 1   
    21    11    44 1   
    22    12    13 1   
    23    12    14 1   
    24    13    45 1   
    25    13    46 1   
    26    13    47 1   
    27    14    15 ar  
    28    15    16 ar  
    29    15    48 1   
    30    16    17 1   
    31    16    18 ar  
    32    18    19 1   
    33    19    20 2   
    34    19    21 1   
    35    21    22 1   
    36    21    25 1   
    37    22    23 1   
    38    22    24 1   
    39    22    49 1   
    40    23    28 1   
    41    23    50 1   
    42    23    51 1   
    43    24    52 1   
    44    24    53 1   
    45    24    54 1   
    46    25    26 1   
    47    25    55 1   
    48    25    56 1   
    49    26    27 1   
    50    26    28 1   
    51    26    57 1   
    52    27    58 1   
    53    27    59 1   
    54    27    60 1   
    55    28    29 1   
    56    29    30 1   
    57    29    61 1   
    58    29    62 1   
    59    30    31 ar  
    60    30    36 ar  
    61    31    32 ar  
    62    31    63 1   
    63    32    33 ar  
    64    32    64 1   
    65    33    34 1   
    66    33    35 ar  
    67    35    36 ar  
    68    35    65 1   
    69    36    66 1   
@<TRIPOS>SUBSTRUCTURE
     1 469         1 TEMP              0 ****  ****    0 ROOT
