@<TRIPOS>MOLECULE
46A
   58    61     1     0     0
SMALL
No Charge or Current Charge


@<TRIPOS>ATOM
      1 N1           2.9680     1.3330    -0.9140 nb         1 46A      -0.261500
      2 C5           1.6140    -1.1230    -1.2280 c3         1 46A       0.276100
      3 C6           0.2810    -0.4780    -0.8560 ca         1 46A      -0.098300
      4 C7          -0.2180     0.6120    -1.5980 ca         1 46A      -0.095500
      5 C8          -1.4430     1.2050    -1.2520 ca         1 46A      -0.095500
      6 C10         -1.6900    -0.3680     0.5800 ca         1 46A      -0.095500
      7 C13         -3.4940     2.7620     0.4750 ca         1 46A      -0.108000
      8 C15         -5.8380     2.7140     1.0780 ca         1 46A      -0.115000
      9 C17         -4.7210     0.6420     0.3690 ca         1 46A      -0.112500
     10 C28          4.5240     2.7410     0.2410 ca         1 46A      -0.288000
     11 C            4.6610    -4.0730     0.9480 c3         1 46A      -0.072400
     12 C2           4.2870    -2.8490     0.0830 c3         1 46A      -0.100400
     13 C3           3.0530    -2.0900     0.6130 c3         1 46A       0.233800
     14 N            2.6870    -0.9150    -0.2190 nh         1 46A      -0.776300
     15 C9          -2.2070     0.7200    -0.1640 cp         1 46A      -0.032000
     16 C11         -0.4640    -0.9630     0.2360 ca         1 46A      -0.095500
     17 C12         -3.4980     1.3700     0.2140 cp         1 46A       0.007000
     18 C14         -4.6490     3.4310     0.9010 ca         1 46A      -0.095000
     19 C16         -5.8720     1.3350     0.8160 ca         1 46A      -0.080000
     20 C18         -4.8720    -0.7930     0.0650 cc         1 46A       0.552500
     21 N19         -4.2190    -1.3750    -0.9820 nc         1 46A      -0.360000
     22 N20         -4.5750    -2.6280    -0.9890 nd         1 46A      -0.175800
     23 N21         -5.4480    -2.7610     0.0610 na         1 46A       0.105600
     24 N22         -5.6600    -1.5940     0.7500 nd         1 46A      -0.518800
     25 C23          3.5650     2.5290    -0.7610 ca         1 46A       0.171800
     26 C25          3.3220     0.3490    -0.0590 ca         1 46A       0.400900
     27 N2           4.2340     0.4660     0.9320 nb         1 46A      -0.261500
     28 C27          4.8360     1.6600     1.0790 ca         1 46A       0.171800
     29 C29          5.8560     1.7860     2.1950 c3         1 46A      -0.150400
     30 C30          3.1560     3.6300    -1.7210 c3         1 46A      -0.150400
     31 C31          5.8940    -4.8300     0.4200 c3         1 46A      -0.088100
     32 H5           1.4410    -2.1980    -1.3780 h1         1 46A       0.066200
     33 H5A          1.9450    -0.7450    -2.2060 h1         1 46A       0.066200
     34 H7           0.3470     1.0030    -2.4410 ha         1 46A       0.118000
     35 H8          -1.8120     2.0460    -1.8350 ha         1 46A       0.114000
     36 H10         -2.2450    -0.7490     1.4340 ha         1 46A       0.114000
     37 H13         -2.5690     3.3240     0.3650 ha         1 46A       0.121000
     38 H15         -6.7380     3.2260     1.4120 ha         1 46A       0.117000
     39 H28          5.0070     3.7060     0.3630 ha         1 46A       0.130000
     40 H            4.8580    -3.7440     1.9760 hc         1 46A       0.037200
     41 HA           3.8090    -4.7630     0.9900 hc         1 46A       0.037200
     42 H2           5.1420    -2.1630     0.0410 hc         1 46A       0.046200
     43 H2A          4.0890    -3.1790    -0.9440 hc         1 46A       0.046200
     44 H3           2.2080    -2.7910     0.6580 h1         1 46A       0.058200
     45 H3A          3.2350    -1.7820     1.6510 h1         1 46A       0.058200
     46 H11         -0.0900    -1.7980     0.8230 ha         1 46A       0.118000
     47 H14         -4.6200     4.5000     1.1020 ha         1 46A       0.116000
     48 H16         -6.8140     0.8050     0.9430 ha         1 46A       0.122000
     49 H29          5.3610     1.9640     3.1560 hc         1 46A       0.053700
     50 H29A         6.4580     0.8740     2.2890 hc         1 46A       0.053700
     51 H29B         6.5450     2.6190     2.0130 hc         1 46A       0.053700
     52 H30          2.0750     3.6180    -1.9020 hc         1 46A       0.053700
     53 H30A         3.4150     4.6200    -1.3280 hc         1 46A       0.053700
     54 H30B         3.6610     3.5100    -2.6870 hc         1 46A       0.053700
     55 H31          5.7160    -5.2020    -0.5960 hc         1 46A       0.031367
     56 H31A         6.7730    -4.1740     0.3990 hc         1 46A       0.031367
     57 H31B         6.1210    -5.6880     1.0640 hc         1 46A       0.031367
     58 H27         -5.8940    -3.6500     0.2930 hn         1 46A       0.405000
@<TRIPOS>BOND
     1     1    25 ar  
     2     1    26 ar  
     3     2     3 1   
     4     2    14 1   
     5     2    32 1   
     6     2    33 1   
     7     3     4 ar  
     8     3    16 ar  
     9     4     5 ar  
    10     4    34 1   
    11     5    15 ar  
    12     5    35 1   
    13     6    15 ar  
    14     6    16 ar  
    15     6    36 1   
    16     7    17 ar  
    17     7    18 ar  
    18     7    37 1   
    19     8    18 ar  
    20     8    19 ar  
    21     8    38 1   
    22     9    17 ar  
    23     9    19 ar  
    24     9    20 1   
    25    10    25 ar  
    26    10    28 ar  
    27    10    39 1   
    28    11    12 1   
    29    11    31 1   
    30    11    40 1   
    31    11    41 1   
    32    12    13 1   
    33    12    42 1   
    34    12    43 1   
    35    13    14 1   
    36    13    44 1   
    37    13    45 1   
    38    14    26 1   
    39    15    17 1   
    40    16    46 1   
    41    18    47 1   
    42    19    48 1   
    43    20    21 1   
    44    20    24 2   
    45    21    22 2   
    46    22    23 1   
    47    23    24 1   
    48    23    58 1   
    49    25    30 1   
    50    26    27 ar  
    51    27    28 ar  
    52    28    29 1   
    53    29    49 1   
    54    29    50 1   
    55    29    51 1   
    56    30    52 1   
    57    30    53 1   
    58    30    54 1   
    59    31    55 1   
    60    31    56 1   
    61    31    57 1   
@<TRIPOS>SUBSTRUCTURE
     1 46A         1 TEMP              0 ****  ****    0 ROOT
