@<TRIPOS>MOLECULE
46A
   58    61     1     0     0
SMALL
bcc


@<TRIPOS>ATOM
      1 N1           3.2650     1.3480    -1.4880 nb         1 46A      -0.787500
      2 C5           1.6440    -0.8200    -1.0210 c3         1 46A       0.276100
      3 C6           0.2830    -0.4130    -0.5170 ca         1 46A      -0.098300
      4 C7          -0.0330     0.9290    -0.3150 ca         1 46A      -0.113500
      5 C8          -1.2860     1.2980     0.1460 ca         1 46A      -0.113500
      6 C10         -1.9440    -1.0020     0.2150 ca         1 46A      -0.113500
      7 C13         -3.6510     1.5300     2.0790 ca         1 46A      -0.126000
      8 C15         -6.0500     1.4330     2.0760 ca         1 46A      -0.133000
      9 C17         -4.7870     0.3170     0.3450 ca         1 46A      -0.112500
     10 C28          5.2100     2.6070    -0.9910 ca         1 46A      -0.436600
     11 C            3.9850    -3.3630     1.9780 c3         1 46A      -0.072400
     12 C2           3.8380    -2.4580     0.7620 c3         1 46A      -0.100400
     13 C3           2.9250    -1.2680     1.0350 c3         1 46A       0.233800
     14 N            2.7160    -0.4290    -0.1280 nh         1 46A      -0.776300
     15 C9          -2.2630     0.3380     0.4100 cp         1 46A      -0.032000
     16 C11         -0.6870    -1.3700    -0.2410 ca         1 46A      -0.113500
     17 C12         -3.5870     0.7390     0.9330 cp         1 46A       0.007000
     18 C14         -4.8660     1.8780     2.6480 ca         1 46A      -0.113000
     19 C16         -6.0060     0.6600     0.9280 ca         1 46A      -0.098000
     20 C18         -4.8060    -0.4490    -0.9040 cc         1 46A       0.552500
     21 N19         -4.1090    -0.1340    -2.0120 nc         1 46A      -0.360000
     22 N20         -4.4250    -1.0120    -2.9040 nd         1 46A      -0.175800
     23 N21         -5.2800    -1.8100    -2.3410 na         1 46A       0.155900
     24 N22         -5.5590    -1.5140    -1.1010 nd         1 46A      -0.518800
     25 C23          4.0920     2.3440    -1.7730 ca         1 46A       0.500100
     26 C25          3.5530     0.5950    -0.4200 ca         1 46A       0.926900
     27 N2           4.6010     0.7790     0.3910 nb         1 46A      -0.787500
     28 C27          5.4200     1.7820     0.1070 ca         1 46A       0.500100
     29 C29          6.5780     1.9920     1.0300 c3         1 46A      -0.150400
     30 C30          3.7640     3.1760    -2.9720 c3         1 46A      -0.150400
     31 C31          4.8800    -4.5660     1.7130 c3         1 46A      -0.088100
     32 H5           1.6730    -1.9060    -1.1470 h1         1 46A       0.066200
     33 H5A          1.8270    -0.3840    -2.0010 h1         1 46A       0.066200
     34 H7           0.7040     1.6940    -0.5290 ha         1 46A       0.136000
     35 H8          -1.5140     2.3480     0.2840 ha         1 46A       0.132000
     36 H10         -2.6730    -1.7720     0.4390 ha         1 46A       0.132000
     37 H13         -2.7300     1.8530     2.5480 ha         1 46A       0.139000
     38 H15         -7.0040     1.6930     2.5150 ha         1 46A       0.135000
     39 H28          5.8850     3.4180    -1.2240 ha         1 46A       0.148000
     40 H            4.3910    -2.7850     2.8130 hc         1 46A       0.037200
     41 HA           2.9970    -3.7060     2.2980 hc         1 46A       0.037200
     42 H2           4.8210    -2.0920     0.4510 hc         1 46A       0.046200
     43 H2A          3.4370    -3.0360    -0.0770 hc         1 46A       0.046200
     44 H3           1.9440    -1.6230     1.3640 h1         1 46A       0.058200
     45 H3A          3.3280    -0.6660     1.8490 h1         1 46A       0.058200
     46 H11         -0.4570    -2.4200    -0.3780 ha         1 46A       0.136000
     47 H14         -4.8870     2.4870     3.5420 ha         1 46A       0.134000
     48 H16         -6.9280     0.3380     0.4620 ha         1 46A       0.140000
     49 H29          6.2330     2.4050     1.9800 hc         1 46A       0.053700
     50 H29A         7.0720     1.0450     1.2500 hc         1 46A       0.053700
     51 H29B         7.3090     2.6800     0.6090 hc         1 46A       0.053700
     52 H30          2.7740     3.6220    -2.8660 hc         1 46A       0.053700
     53 H30A         4.4900     3.9740    -3.1170 hc         1 46A       0.053700
     54 H30B         3.7440     2.5590    -3.8710 hc         1 46A       0.053700
     55 H31          4.4810    -5.1870     0.9090 hc         1 46A       0.031367
     56 H31A         5.8840    -4.2530     1.4210 hc         1 46A       0.031367
     57 H31B         4.9740    -5.1940     2.6000 hc         1 46A       0.031367
     58 H27         -5.6900    -2.5970    -2.8280 hn         1 46A       0.354700
@<TRIPOS>BOND
     1     1    25 ar  
     2     1    26 ar  
     3     2     3 1   
     4     2    14 1   
     5     2    32 1   
     6     2    33 1   
     7     3     4 ar  
     8     3    16 ar  
     9     4     5 ar  
    10     4    34 1   
    11     5    15 ar  
    12     5    35 1   
    13     6    15 ar  
    14     6    16 ar  
    15     6    36 1   
    16     7    17 ar  
    17     7    18 ar  
    18     7    37 1   
    19     8    18 ar  
    20     8    19 ar  
    21     8    38 1   
    22     9    17 ar  
    23     9    19 ar  
    24     9    20 1   
    25    10    25 ar  
    26    10    28 ar  
    27    10    39 1   
    28    11    12 1   
    29    11    31 1   
    30    11    40 1   
    31    11    41 1   
    32    12    13 1   
    33    12    42 1   
    34    12    43 1   
    35    13    14 1   
    36    13    44 1   
    37    13    45 1   
    38    14    26 1   
    39    15    17 1   
    40    16    46 1   
    41    18    47 1   
    42    19    48 1   
    43    20    21 1   
    44    20    24 2   
    45    21    22 2   
    46    22    23 1   
    47    23    24 1   
    48    23    58 1   
    49    25    30 1   
    50    26    27 ar  
    51    27    28 ar  
    52    28    29 1   
    53    29    49 1   
    54    29    50 1   
    55    29    51 1   
    56    30    52 1   
    57    30    53 1   
    58    30    54 1   
    59    31    55 1   
    60    31    56 1   
    61    31    57 1   
@<TRIPOS>SUBSTRUCTURE
     1 46A         1 TEMP              0 ****  ****    0 ROOT
