@<TRIPOS>MOLECULE
46B
   45    47     1     0     0
SMALL
bcc


@<TRIPOS>ATOM
      1 O19          8.1240     2.1250    -0.0260 o          1 46B      -0.816800
      2 C18          7.5560     1.0730    -0.3760 c          1 46B       0.939600
      3 O20          8.0480     0.0930    -0.9540 o          1 46B      -0.816800
      4 C17          6.0600     1.0420    -0.0260 c3         1 46B      -0.023600
      5 O16          5.4700    -0.1760    -0.4410 os         1 46B      -0.264900
      6 C13          4.1540    -0.3520    -0.2480 ca         1 46B       0.191100
      7 C14          3.6090    -1.5560    -0.7040 ca         1 46B      -0.225000
      8 C15          2.2630    -1.8200    -0.5560 ca         1 46B      -0.061500
      9 C12          3.3090     0.5720     0.3660 ca         1 46B      -0.225000
     10 C11          1.9560     0.2960     0.5050 ca         1 46B      -0.061500
     11 C10          1.4000    -0.8970     0.0480 ca         1 46B      -0.122800
     12 C2          -0.0230    -1.2130     0.1810 cc         1 46B       0.202400
     13 N1          -0.4900    -2.4500    -0.1390 nc         1 46B      -0.289600
     14 C9          -1.7870    -2.4220     0.0690 cd         1 46B      -0.020300
     15 C8          -2.7650    -3.4260    -0.0700 cd         1 46B      -0.086000
     16 C7          -4.0690    -3.1410     0.2080 cc         1 46B      -0.118000
     17 C3          -1.0570    -0.3870     0.5900 cd         1 46B      -0.018100
     18 N4          -2.1890    -1.1710     0.5020 na         1 46B      -0.005300
     19 C5          -3.4860    -0.8620     0.7780 cd         1 46B      -0.042300
     20 C6          -4.4230    -1.8340     0.6340 cc         1 46B      -0.072900
     21 BR1         -6.2230    -1.4360     1.0000 br         1 46B      -0.091100
     22 N21         -1.0710     0.9470     0.9530 nu         1 46B      -0.704000
     23 C22         -1.1830     1.9290    -0.1240 c3         1 46B       0.183800
     24 C23         -0.8510     3.3220     0.3790 c3         1 46B      -0.083400
     25 C24         -0.9380     4.3750    -0.7190 c3         1 46B      -0.073400
     26 C25         -0.5560     5.7650    -0.2310 c3         1 46B      -0.088100
     27 H171         5.9450     1.1780     1.0560 h1         1 46B       0.018700
     28 H172         5.5640     1.8930    -0.5090 h1         1 46B       0.018700
     29 H14          4.2540    -2.2840    -1.1810 ha         1 46B       0.143000
     30 H12          3.6830     1.5120     0.7460 ha         1 46B       0.143000
     31 H15          1.8700    -2.7590    -0.9210 ha         1 46B       0.134000
     32 H11          1.3290     1.0300     0.9930 ha         1 46B       0.134000
     33 H8          -2.4620    -4.4100    -0.3970 ha         1 46B       0.160000
     34 H7          -4.8280    -3.9040     0.1050 ha         1 46B       0.148000
     35 H5          -3.6980     0.1490     1.0950 h4         1 46B       0.166000
     36 H121        -1.6850     1.1520     1.7310 hn         1 46B       0.382800
     37 H221        -0.4730     1.6450    -0.9050 h1         1 46B       0.039200
     38 H222        -2.1790     1.9250    -0.5880 h1         1 46B       0.039200
     39 H231        -1.5300     3.5910     1.1960 hc         1 46B       0.046200
     40 H232         0.1570     3.3140     0.8060 hc         1 46B       0.046200
     41 H241        -0.2850     4.0860    -1.5480 hc         1 46B       0.038200
     42 H242        -1.9540     4.3940    -1.1250 hc         1 46B       0.038200
     43 H251         0.4700     5.7840     0.1410 hc         1 46B       0.032033
     44 H252        -0.6340     6.5030    -1.0290 hc         1 46B       0.032033
     45 H253        -1.2060     6.0910     0.5840 hc         1 46B       0.032033
@<TRIPOS>BOND
     1     1     2 1   
     2     2     3 1   
     3     2     4 1   
     4     4     5 1   
     5     4    27 1   
     6     4    28 1   
     7     5     6 1   
     8     6     7 ar  
     9     6     9 ar  
    10     7     8 ar  
    11     7    29 1   
    12     8    11 ar  
    13     8    31 1   
    14     9    10 ar  
    15     9    30 1   
    16    10    11 ar  
    17    10    32 1   
    18    11    12 1   
    19    12    13 1   
    20    12    17 2   
    21    13    14 2   
    22    14    15 1   
    23    14    18 1   
    24    15    16 2   
    25    15    33 1   
    26    16    20 1   
    27    16    34 1   
    28    17    18 1   
    29    17    22 1   
    30    18    19 1   
    31    19    20 2   
    32    19    35 1   
    33    20    21 1   
    34    22    23 1   
    35    22    36 1   
    36    23    24 1   
    37    23    37 1   
    38    23    38 1   
    39    24    25 1   
    40    24    39 1   
    41    24    40 1   
    42    25    26 1   
    43    25    41 1   
    44    25    42 1   
    45    26    43 1   
    46    26    44 1   
    47    26    45 1   
@<TRIPOS>SUBSTRUCTURE
     1 46B         1 TEMP              0 ****  ****    0 ROOT
