@<TRIPOS>MOLECULE
46B
   45    47     1     0     0
SMALL
No Charge or Current Charge


@<TRIPOS>ATOM
      1 O19          7.5380     2.9480     0.0560 o          1 46B      -0.711500
      2 C18          6.9300     2.0600    -0.5290 c          1 46B       0.729000
      3 O20          7.4000     1.4470    -1.4800 o          1 46B      -0.711500
      4 C17          5.4990     1.7150    -0.0210 c3         1 46B      -0.000400
      5 O16          4.8670     0.6530    -0.7760 os         1 46B      -0.288100
      6 C13          3.5930     0.2050    -0.4910 ca         1 46B       0.191100
      7 C14          3.0590    -0.8160    -1.2920 ca         1 46B      -0.207000
      8 C15          1.7640    -1.3070    -1.0540 ca         1 46B      -0.043500
      9 C12          2.8240     0.7260     0.5710 ca         1 46B      -0.207000
     10 C11          1.5300     0.2330     0.8100 ca         1 46B      -0.043500
     11 C10          0.9800    -0.7630    -0.0190 ca         1 46B      -0.122800
     12 C2          -0.3630    -1.2840     0.2420 cc         1 46B       0.202400
     13 N1          -0.6390    -2.6300     0.3630 nc         1 46B      -0.289600
     14 C9          -1.9370    -2.6820     0.6060 cd         1 46B      -0.071000
     15 C8          -2.7410    -3.8400     0.8000 cd         1 46B      -0.068000
     16 C7          -4.0840    -3.6050     1.0060 cc         1 46B      -0.100000
     17 C3          -1.4860    -0.4720     0.3740 cd         1 46B      -0.018100
     18 N4          -2.4580    -1.4120     0.6490 na         1 46B       0.096100
     19 C5          -3.8230    -1.1410     0.8040 cd         1 46B      -0.075000
     20 C6          -4.6250    -2.2640     1.0010 cc         1 46B      -0.072900
     21 Br1         -6.4770    -2.0240     1.2590 br         1 46B      -0.091100
     22 N21         -1.6920     0.9010     0.2360 nu         1 46B      -0.759200
     23 C22         -0.9460     1.8060    -0.6560 c3         1 46B       0.183800
     24 C23         -0.4450     3.0480     0.1100 c3         1 46B      -0.083400
     25 C24          0.4620     3.9540    -0.7510 c3         1 46B      -0.073400
     26 C25          0.9810     5.1880     0.0120 c3         1 46B      -0.088100
     27 H171         5.5830     1.4280     1.0350 h1         1 46B       0.018700
     28 H172         4.8960     2.6300    -0.0800 h1         1 46B       0.018700
     29 H14          3.6530    -1.2280    -2.1040 ha         1 46B       0.125000
     30 H12          3.2130     1.5050     1.2200 ha         1 46B       0.125000
     31 H15          1.3620    -2.0980    -1.6850 ha         1 46B       0.116000
     32 H11          0.9490     0.6260     1.6410 ha         1 46B       0.116000
     33 H8          -2.3280    -4.8430     0.7800 ha         1 46B       0.142000
     34 H7          -4.7630    -4.4380     1.1620 ha         1 46B       0.130000
     35 H5          -4.1680    -0.1160     0.7770 h4         1 46B       0.148000
     36 H121        -2.6070     1.2410     0.5380 hn         1 46B       0.438000
     37 H221        -0.0940     1.2900    -1.1150 h1         1 46B       0.039200
     38 H222        -1.6000     2.1340    -1.4740 h1         1 46B       0.039200
     39 H231        -1.3080     3.6250     0.4640 hc         1 46B       0.046200
     40 H232         0.1120     2.7320     0.9990 hc         1 46B       0.046200
     41 H241         1.3190     3.3720    -1.1100 hc         1 46B       0.038200
     42 H242        -0.0930     4.2880    -1.6360 hc         1 46B       0.038200
     43 H251         1.5740     4.8830     0.8840 hc         1 46B       0.032033
     44 H252         1.6180     5.7990    -0.6380 hc         1 46B       0.032033
     45 H253         0.1470     5.8100     0.3590 hc         1 46B       0.032033
@<TRIPOS>BOND
     1     1     2 1   
     2     2     3 1   
     3     2     4 1   
     4     4     5 1   
     5     4    27 1   
     6     4    28 1   
     7     5     6 1   
     8     6     7 ar  
     9     6     9 ar  
    10     7     8 ar  
    11     7    29 1   
    12     8    11 ar  
    13     8    31 1   
    14     9    10 ar  
    15     9    30 1   
    16    10    11 ar  
    17    10    32 1   
    18    11    12 1   
    19    12    13 1   
    20    12    17 2   
    21    13    14 2   
    22    14    15 1   
    23    14    18 1   
    24    15    16 2   
    25    15    33 1   
    26    16    20 1   
    27    16    34 1   
    28    17    18 1   
    29    17    22 1   
    30    18    19 1   
    31    19    20 2   
    32    19    35 1   
    33    20    21 1   
    34    22    23 1   
    35    22    36 1   
    36    23    24 1   
    37    23    37 1   
    38    23    38 1   
    39    24    25 1   
    40    24    39 1   
    41    24    40 1   
    42    25    26 1   
    43    25    41 1   
    44    25    42 1   
    45    26    43 1   
    46    26    44 1   
    47    26    45 1   
@<TRIPOS>SUBSTRUCTURE
     1 46B         1 TEMP              0 ****  ****    0 ROOT
