@<TRIPOS>MOLECULE
46C
   51    54     1     0     0
SMALL
No Charge or Current Charge


@<TRIPOS>ATOM
      1 C4          -1.7450    -1.9890     1.0360 ca         1 46C      -0.169600
      2 C5          -2.5260    -3.1670     1.0650 ca         1 46C      -0.036000
      3 C6          -3.7370    -3.2330     0.3600 ca         1 46C      -0.141000
      4 C10         -1.3760     0.3540     0.2770 cc         1 46C      -0.121400
      5 N12          0.2850    -0.7170     1.7130 n          1 46C      -0.263000
      6 C13         -0.4570    -1.9220     1.7880 c          1 46C       0.571600
      7 C15         -1.9510     1.5920    -0.2530 ca         1 46C      -0.036800
      8 C20          0.6730     3.8560    -0.4870 c3         1 46C      -0.075100
      9 C26          1.6480    -0.7160     2.3260 c3         1 46C       0.128300
     10 C1          -4.1720    -2.1230    -0.3720 ca         1 46C       0.147000
     11 C2          -3.4000    -0.9540    -0.4030 ca         1 46C      -0.121000
     12 C3          -2.1730    -0.8770     0.2950 ca         1 46C       0.043200
     13 C11         -0.1630     0.4140     0.9830 cd         1 46C       0.034400
     14 Cl14        -5.6940    -2.1950    -1.2520 cl         1 46C      -0.214000
     15 O16         -0.0700    -2.8900     2.4340 o          1 46C      -0.553000
     16 O18          1.1080     2.1830     1.9880 o          1 46C      -0.515100
     17 C19          1.0130     2.3500    -0.3860 c3         1 46C      -0.173400
     18 C27          2.7700    -0.4980     1.3090 ca         1 46C      -0.168300
     19 C30          3.8020     0.4190     1.5760 ca         1 46C      -0.126500
     20 C31          4.8210     0.6420     0.6340 ca         1 46C      -0.094500
     21 C32          4.8330    -0.0530    -0.5980 ca         1 46C      -0.121600
     22 C33          3.7940    -0.9790    -0.8550 ca         1 46C      -0.094500
     23 C34          2.7770    -1.1990     0.0890 ca         1 46C      -0.126500
     24 C39         -2.0440     1.8060    -1.6420 ca         1 46C      -0.098500
     25 C40         -2.6560     2.9690    -2.1410 ca         1 46C      -0.113000
     26 C41         -3.1940     3.9160    -1.2540 ca         1 46C      -0.111000
     27 C42         -3.1210     3.6990     0.1330 ca         1 46C      -0.113000
     28 C43         -2.5030     2.5390     0.6310 ca         1 46C      -0.098500
     29 C49          5.9350     0.1870    -1.6200 c          1 46C       0.710600
     30 O50          6.8130     0.9960    -1.3550 o          1 46C      -0.715000
     31 O51          5.9050    -0.4370    -2.6720 o          1 46C      -0.715000
     32 H5          -2.1980    -4.0360     1.6340 ha         1 46C       0.139000
     33 H6          -4.3360    -4.1400     0.3840 ha         1 46C       0.127000
     34 H20          0.9670     4.2480    -1.4680 hc         1 46C       0.041367
     35 H20A        -0.3970     4.0370    -0.3580 hc         1 46C       0.041367
     36 H20B         1.2100     4.4270     0.2810 hc         1 46C       0.041367
     37 H26          1.6860     0.0580     3.1020 h1         1 46C       0.076200
     38 H26A         1.8570    -1.6580     2.8460 h1         1 46C       0.076200
     39 H2          -3.7730    -0.1100    -0.9730 ha         1 46C       0.138000
     40 H19          2.0990     2.2490    -0.4890 hc         1 46C       0.085700
     41 H19A         0.5680     1.7930    -1.2150 hc         1 46C       0.085700
     42 H30          3.8140     0.9710     2.5140 ha         1 46C       0.095500
     43 H31          5.6040     1.3600     0.8660 ha         1 46C       0.132000
     44 H33          3.7730    -1.5330    -1.7910 ha         1 46C       0.132000
     45 H34          1.9900    -1.9170    -0.1350 ha         1 46C       0.095500
     46 H39         -1.6440     1.0670    -2.3340 ha         1 46C       0.123000
     47 H40         -2.7190     3.1320    -3.2150 ha         1 46C       0.111500
     48 H41         -3.6710     4.8140    -1.6400 ha         1 46C       0.108000
     49 H42         -3.5450     4.4280     0.8200 ha         1 46C       0.111500
     50 H43         -2.4630     2.3700     1.7050 ha         1 46C       0.123000
     51 C17          0.6370     1.7030     0.9620 c          1 46C       0.597300
@<TRIPOS>BOND
     1     1     2 ar  
     2     1     6 1   
     3     1    12 ar  
     4     2     3 ar  
     5     2    32 1   
     6     3    10 ar  
     7     3    33 1   
     8     4     7 1   
     9     4    12 1   
    10     4    13 2   
    11     5     6 1   
    12     5     9 1   
    13     5    13 1   
    14     6    15 2   
    15     7    24 ar  
    16     7    28 ar  
    17     8    17 1   
    18     8    34 1   
    19     8    35 1   
    20     8    36 1   
    21     9    18 1   
    22     9    37 1   
    23     9    38 1   
    24    10    11 ar  
    25    10    14 1   
    26    11    12 ar  
    27    11    39 1   
    28    13    51 1   
    29    16    51 2   
    30    17    40 1   
    31    17    41 1   
    32    17    51 1   
    33    18    19 ar  
    34    18    23 ar  
    35    19    20 ar  
    36    19    42 1   
    37    20    21 ar  
    38    20    43 1   
    39    21    22 ar  
    40    21    29 1   
    41    22    23 ar  
    42    22    44 1   
    43    23    45 1   
    44    24    25 ar  
    45    24    46 1   
    46    25    26 ar  
    47    25    47 1   
    48    26    27 ar  
    49    26    48 1   
    50    27    28 ar  
    51    27    49 1   
    52    28    50 1   
    53    29    30 1   
    54    29    31 1   
@<TRIPOS>SUBSTRUCTURE
     1 46C         1 TEMP              0 ****  ****    0 ROOT
