@<TRIPOS>MOLECULE
46C
   51    54     1     0     0
SMALL
abcg2


@<TRIPOS>ATOM
      1 C4          -1.7610    -2.0430     1.0080 ca         1 46C      -0.169600
      2 C5          -2.4910    -3.2340     1.0620 ca         1 46C      -0.036000
      3 C6          -3.7450    -3.3170     0.5040 ca         1 46C      -0.141000
      4 C10         -1.5200     0.2970     0.3340 cc         1 46C      -0.121400
      5 N12          0.2180    -0.7900     1.5850 n          1 46C      -0.263000
      6 C13         -0.4430    -2.0020     1.6390 c          1 46C       0.571600
      7 C15         -2.0720     1.5100    -0.3130 ca         1 46C      -0.036800
      8 C20          1.6660     3.5600    -0.0470 c3         1 46C      -0.075100
      9 C26          1.5490    -0.7200     2.1990 c3         1 46C       0.128300
     10 C1          -4.2780    -2.1840    -0.1130 ca         1 46C       0.147000
     11 C2          -3.5820    -1.0000    -0.1850 ca         1 46C      -0.121000
     12 C3          -2.2970    -0.9170     0.3720 ca         1 46C       0.043200
     13 C11         -0.3090     0.3140     0.9410 cd         1 46C       0.034400
     14 CL14        -5.8620    -2.2740    -0.8000 cl         1 46C      -0.214000
     15 O16          0.0520    -2.9760     2.1870 o          1 46C      -0.553000
     16 O18          0.5850     2.1360     2.1160 o          1 46C      -0.515100
     17 C19          1.0290     2.1960    -0.2310 c3         1 46C      -0.173400
     18 C27          2.6230    -0.3690     1.2080 ca         1 46C      -0.168300
     19 C30          3.5550     0.6200     1.5030 ca         1 46C      -0.126500
     20 C31          4.5460     0.9500     0.5910 ca         1 46C      -0.094500
     21 C32          4.6260     0.3090    -0.6420 ca         1 46C      -0.121600
     22 C33          3.6960    -0.6880    -0.9290 ca         1 46C      -0.094500
     23 C34          2.7110    -1.0290    -0.0160 ca         1 46C      -0.126500
     24 C39         -2.2400     1.5520    -1.6980 ca         1 46C      -0.098500
     25 C40         -2.7250     2.6960    -2.3130 ca         1 46C      -0.113000
     26 C41         -3.0540     3.8110    -1.5510 ca         1 46C      -0.111000
     27 C42         -2.9040     3.7720    -0.1720 ca         1 46C      -0.113000
     28 C43         -2.4200     2.6250     0.4450 ca         1 46C      -0.098500
     29 C49          5.7020     0.6910    -1.6510 c          1 46C       0.710600
     30 O50          6.5190     1.5590    -1.2910 o          1 46C      -0.715000
     31 O51          5.6700     0.1020    -2.7480 o          1 46C      -0.715000
     32 H5          -2.0680    -4.1000     1.5520 ha         1 46C       0.139000
     33 H6          -4.3090    -4.2380     0.5450 ha         1 46C       0.127000
     34 H20          2.0520     3.9170    -1.0000 hc         1 46C       0.041367
     35 H20A         0.9470     4.2930     0.3180 hc         1 46C       0.041367
     36 H20B         2.5000     3.5220     0.6540 hc         1 46C       0.041367
     37 H26          1.5350    -0.0110     3.0260 h1         1 46C       0.076200
     38 H26A         1.7440    -1.6990     2.6290 h1         1 46C       0.076200
     39 H2          -4.0280    -0.1390    -0.6610 ha         1 46C       0.138000
     40 H19          1.7570     1.4770    -0.6220 hc         1 46C       0.085700
     41 H19A         0.2440     2.2300    -0.9900 hc         1 46C       0.085700
     42 H30          3.4940     1.1480     2.4480 ha         1 46C       0.095500
     43 H31          5.2600     1.7260     0.8310 ha         1 46C       0.132000
     44 H33          3.7440    -1.2020    -1.8800 ha         1 46C       0.132000
     45 H34          1.9970    -1.8060    -0.2670 ha         1 46C       0.095500
     46 H39         -1.9690     0.6910    -2.2970 ha         1 46C       0.123000
     47 H40         -2.8400     2.7190    -3.3890 ha         1 46C       0.111500
     48 H41         -3.4280     4.7050    -2.0310 ha         1 46C       0.108000
     49 H42         -3.1670     4.6340     0.4270 ha         1 46C       0.111500
     50 H43         -2.3190     2.5970     1.5220 ha         1 46C       0.123000
     51 C17          0.4650     1.6160     1.0320 c          1 46C       0.597300
@<TRIPOS>BOND
     1     1     2 ar  
     2     1     6 1   
     3     1    12 ar  
     4     2     3 ar  
     5     2    32 1   
     6     3    10 ar  
     7     3    33 1   
     8     4     7 1   
     9     4    12 1   
    10     4    13 2   
    11     5     6 1   
    12     5     9 1   
    13     5    13 1   
    14     6    15 2   
    15     7    24 ar  
    16     7    28 ar  
    17     8    17 1   
    18     8    34 1   
    19     8    35 1   
    20     8    36 1   
    21     9    18 1   
    22     9    37 1   
    23     9    38 1   
    24    10    11 ar  
    25    10    14 1   
    26    11    12 ar  
    27    11    39 1   
    28    13    51 1   
    29    16    51 2   
    30    17    40 1   
    31    17    41 1   
    32    17    51 1   
    33    18    19 ar  
    34    18    23 ar  
    35    19    20 ar  
    36    19    42 1   
    37    20    21 ar  
    38    20    43 1   
    39    21    22 ar  
    40    21    29 1   
    41    22    23 ar  
    42    22    44 1   
    43    23    45 1   
    44    24    25 ar  
    45    24    46 1   
    46    25    26 ar  
    47    25    47 1   
    48    26    27 ar  
    49    26    48 1   
    50    27    28 ar  
    51    27    49 1   
    52    28    50 1   
    53    29    30 1   
    54    29    31 1   
@<TRIPOS>SUBSTRUCTURE
     1 46C         1 TEMP              0 ****  ****    0 ROOT
