@<TRIPOS>MOLECULE
46E
  108   107     1     0     0
SMALL
bcc


@<TRIPOS>ATOM
      1 P           -1.5180    -4.6840     0.7250 p5         1 46E       1.392800
      2 N           -3.5360    -1.0820     2.1970 n8         1 46E      -0.892800
      3 O11         -0.0290    -4.1660     0.2610 os         1 46E      -0.545200
      4 O12         -2.4360    -4.7710    -0.4570 o          1 46E      -0.830000
      5 O13         -1.8160    -3.3400     1.6120 os         1 46E      -0.574200
      6 O14         -1.3830    -5.8740     1.6290 o          1 46E      -0.830000
      7 C11         -2.8450    -3.4000     2.5870 c3         1 46E       0.196400
      8 C12         -3.0350    -2.0240     3.1840 c3         1 46E       0.149800
      9 C1           0.6640    -4.9170    -0.7070 c3         1 46E       0.193400
     10 C2           0.9920    -4.1040    -1.9480 c3         1 46E       0.130100
     11 C3          -0.2000    -3.6530    -2.7610 c3         1 46E       0.152400
     12 O31         -0.9310    -2.6640    -2.0490 os         1 46E      -0.388900
     13 O32         -2.7030    -2.9720    -3.3700 o          1 46E      -0.565000
     14 C31         -2.1920    -2.4540    -2.4070 c          1 46E       0.677100
     15 C32         -2.8790    -1.4910    -1.4810 c3         1 46E      -0.140400
     16 C33         -4.1970    -0.9580    -2.0220 c3         1 46E      -0.061400
     17 C34         -4.8960    -0.0450    -1.0220 c3         1 46E      -0.082400
     18 C35         -6.2390     0.4700    -1.5230 c3         1 46E      -0.071400
     19 C36         -6.9890     1.2890    -0.4800 c3         1 46E      -0.075400
     20 C37         -8.3420     1.7960    -0.9630 c3         1 46E      -0.073400
     21 C38         -9.1130     2.5520     0.1130 c3         1 46E      -0.075400
     22 C39        -10.4760     3.0520    -0.3520 c3         1 46E      -0.074400
     23 C3A        -11.2520     3.7720     0.7440 c3         1 46E      -0.075400
     24 C3B        -12.6220     4.2640     0.2950 c3         1 46E      -0.074400
     25 C3C        -13.3970     4.9690     1.4020 c3         1 46E      -0.076400
     26 C3D        -14.7750     5.4500     0.9650 c3         1 46E      -0.075400
     27 C3E        -15.5340     6.1590     2.0790 c3         1 46E      -0.088100
     28 O21          1.7500    -2.9360    -1.6090 os         1 46E      -0.393900
     29 O22          3.6880    -4.0520    -1.6650 o          1 46E      -0.566000
     30 C21          3.0700    -3.0340    -1.4730 c          1 46E       0.649100
     31 C22          3.6710    -1.7270    -1.0350 c3         1 46E      -0.142400
     32 C23          5.1910    -1.7070    -1.0730 c3         1 46E      -0.066400
     33 C24          5.7530    -0.3770    -0.5880 c3         1 46E      -0.076400
     34 C25          7.2740    -0.3260    -0.6350 c3         1 46E      -0.074400
     35 C26          7.8460     0.9940    -0.1310 c3         1 46E      -0.074400
     36 C27          9.3670     1.0510    -0.1900 c3         1 46E      -0.074400
     37 C28          9.9400     2.3670     0.3210 c3         1 46E      -0.074400
     38 C29         11.4610     2.4290     0.2550 c3         1 46E      -0.074400
     39 C2A         12.0320     3.7460     0.7660 c3         1 46E      -0.074400
     40 C2B         13.5530     3.8120     0.6930 c3         1 46E      -0.074400
     41 C2C         14.1220     5.1300     1.2020 c3         1 46E      -0.075400
     42 C2D         15.6420     5.2050     1.1190 c3         1 46E      -0.075400
     43 C2E         16.1980     6.5260     1.6310 c3         1 46E      -0.088100
     44 H1          -3.6990    -0.1830     2.6310 hn         1 46E       0.333300
     45 H2          -2.8300    -0.9220     1.4900 hn         1 46E       0.333300
     46 H5          -3.7900    -3.7310     2.1410 h1         1 46E       0.029700
     47 H6          -2.5850    -4.1060     3.3820 h1         1 46E       0.029700
     48 H7          -2.0980    -1.7120     3.6670 h1         1 46E       0.016200
     49 H8          -3.7760    -2.1180     3.9820 h1         1 46E       0.016200
     50 H9           1.5950    -5.2870    -0.2680 h1         1 46E       0.033200
     51 H10          0.1090    -5.8010    -1.0410 h1         1 46E       0.033200
     52 H11          1.5750    -4.7570    -2.6050 h1         1 46E       0.049700
     53 H12          0.1370    -3.2420    -3.7160 h1         1 46E       0.051200
     54 H13         -0.8180    -4.5270    -2.9740 h1         1 46E       0.051200
     55 H14         -3.0430    -2.0240    -0.5400 hc         1 46E       0.083700
     56 H15         -2.1970    -0.6700    -1.2450 hc         1 46E       0.083700
     57 H16         -4.0250    -0.4160    -2.9570 hc         1 46E       0.045200
     58 H17         -4.8570    -1.7930    -2.2680 hc         1 46E       0.045200
     59 H18         -5.0360    -0.5830    -0.0790 hc         1 46E       0.044700
     60 H19         -4.2470     0.8050    -0.7830 hc         1 46E       0.044700
     61 H20         -6.0900     1.0720    -2.4260 hc         1 46E       0.033700
     62 H21         -6.8600    -0.3800    -1.8270 hc         1 46E       0.033700
     63 H22         -7.1320     0.6770     0.4170 hc         1 46E       0.037700
     64 H23         -6.3730     2.1400    -0.1690 hc         1 46E       0.037700
     65 H24         -8.2020     2.4440    -1.8350 hc         1 46E       0.035200
     66 H25         -8.9440     0.9480    -1.3100 hc         1 46E       0.035200
     67 H26         -9.2450     1.9000     0.9830 hc         1 46E       0.036700
     68 H27         -8.5160     3.4020     0.4610 hc         1 46E       0.036700
     69 H28        -10.3470     3.7230    -1.2080 hc         1 46E       0.035700
     70 H29        -11.0670     2.2040    -0.7170 hc         1 46E       0.035700
     71 H30        -11.3720     3.1000     1.6010 hc         1 46E       0.036700
     72 H31        -10.6630     4.6220     1.1080 hc         1 46E       0.036700
     73 H32        -12.5050     4.9440    -0.5550 hc         1 46E       0.036200
     74 H33        -13.2090     3.4150    -0.0740 hc         1 46E       0.036200
     75 H34        -13.5040     4.2920     2.2560 hc         1 46E       0.036700
     76 H35        -12.8140     5.8230     1.7660 hc         1 46E       0.036700
     77 H36        -14.6690     6.1250     0.1100 hc         1 46E       0.035700
     78 H37        -15.3590     4.5970     0.6060 hc         1 46E       0.035700
     79 H38        -15.6670     5.5070     2.9440 hc         1 46E       0.029700
     80 H39        -14.9960     7.0460     2.4170 hc         1 46E       0.029700
     81 H40        -16.5240     6.4790     1.7500 hc         1 46E       0.029700
     82 H41          3.2570    -0.9240    -1.6510 hc         1 46E       0.073200
     83 H42          3.3130    -1.5290    -0.0180 hc         1 46E       0.073200
     84 H43          5.5900    -2.5140    -0.4550 hc         1 46E       0.049700
     85 H44          5.5360    -1.8990    -2.0930 hc         1 46E       0.049700
     86 H45          5.3420     0.4380    -1.1940 hc         1 46E       0.037200
     87 H46          5.4140    -0.1920     0.4380 hc         1 46E       0.037200
     88 H47          7.6840    -1.1500    -0.0410 hc         1 46E       0.037700
     89 H48          7.6110    -0.4980    -1.6640 hc         1 46E       0.037700
     90 H49          7.4280     1.8190    -0.7190 hc         1 46E       0.036700
     91 H50          7.5160     1.1610     0.9010 hc         1 46E       0.036700
     92 H51          9.7850     0.2230     0.3940 hc         1 46E       0.036700
     93 H52          9.6960     0.8890    -1.2220 hc         1 46E       0.036700
     94 H53          9.5170     3.1960    -0.2590 hc         1 46E       0.036700
     95 H54          9.6150     2.5270     1.3560 hc         1 46E       0.036700
     96 H55         11.8840     1.6000     0.8340 hc         1 46E       0.036200
     97 H56         11.7850     2.2700    -0.7800 hc         1 46E       0.036200
     98 H57         11.6050     4.5740     0.1900 hc         1 46E       0.036700
     99 H58         11.7120     3.9020     1.8020 hc         1 46E       0.036700
    100 H59         13.9810     2.9840     1.2690 hc         1 46E       0.036200
    101 H60         13.8730     3.6550    -0.3440 hc         1 46E       0.036200
    102 H61         13.6880     5.9580     0.6300 hc         1 46E       0.036700
    103 H62         13.8090     5.2850     2.2400 hc         1 46E       0.036700
    104 H63         16.0760     4.3780     1.6890 hc         1 46E       0.036200
    105 H64         15.9550     5.0530     0.0810 hc         1 46E       0.036200
    106 H65         15.7870     7.3690     1.0710 hc         1 46E       0.030033
    107 H66         15.9470     6.6780     2.6830 hc         1 46E       0.030033
    108 H67         17.2840     6.5680     1.5420 hc         1 46E       0.030033
@<TRIPOS>BOND
     1     1     3 1   
     2     1     4 1   
     3     1     5 1   
     4     1     6 1   
     5     2     8 1   
     6     2    44 1   
     7     2    45 1   
     8     3     9 1   
     9     5     7 1   
    10     7     8 1   
    11     7    46 1   
    12     7    47 1   
    13     8    48 1   
    14     8    49 1   
    15     9    10 1   
    16     9    50 1   
    17     9    51 1   
    18    10    11 1   
    19    10    28 1   
    20    10    52 1   
    21    11    12 1   
    22    11    53 1   
    23    11    54 1   
    24    12    14 1   
    25    13    14 2   
    26    14    15 1   
    27    15    16 1   
    28    15    55 1   
    29    15    56 1   
    30    16    17 1   
    31    16    57 1   
    32    16    58 1   
    33    17    18 1   
    34    17    59 1   
    35    17    60 1   
    36    18    19 1   
    37    18    61 1   
    38    18    62 1   
    39    19    20 1   
    40    19    63 1   
    41    19    64 1   
    42    20    21 1   
    43    20    65 1   
    44    20    66 1   
    45    21    22 1   
    46    21    67 1   
    47    21    68 1   
    48    22    23 1   
    49    22    69 1   
    50    22    70 1   
    51    23    24 1   
    52    23    71 1   
    53    23    72 1   
    54    24    25 1   
    55    24    73 1   
    56    24    74 1   
    57    25    26 1   
    58    25    75 1   
    59    25    76 1   
    60    26    27 1   
    61    26    77 1   
    62    26    78 1   
    63    27    79 1   
    64    27    80 1   
    65    27    81 1   
    66    28    30 1   
    67    29    30 2   
    68    30    31 1   
    69    31    32 1   
    70    31    82 1   
    71    31    83 1   
    72    32    33 1   
    73    32    84 1   
    74    32    85 1   
    75    33    34 1   
    76    33    86 1   
    77    33    87 1   
    78    34    35 1   
    79    34    88 1   
    80    34    89 1   
    81    35    36 1   
    82    35    90 1   
    83    35    91 1   
    84    36    37 1   
    85    36    92 1   
    86    36    93 1   
    87    37    38 1   
    88    37    94 1   
    89    37    95 1   
    90    38    39 1   
    91    38    96 1   
    92    38    97 1   
    93    39    40 1   
    94    39    98 1   
    95    39    99 1   
    96    40    41 1   
    97    40   100 1   
    98    40   101 1   
    99    41    42 1   
   100    41   102 1   
   101    41   103 1   
   102    42    43 1   
   103    42   104 1   
   104    42   105 1   
   105    43   106 1   
   106    43   107 1   
   107    43   108 1   
@<TRIPOS>SUBSTRUCTURE
     1 46E         1 TEMP              0 ****  ****    0 ROOT
