@<TRIPOS>MOLECULE
46E
  108   107     1     0     0
SMALL
No Charge or Current Charge


@<TRIPOS>ATOM
      1 P           -2.4800    -5.0900    -0.3540 p5         1 46E       1.392800
      2 N           -0.6310    -2.5200     1.5730 n8         1 46E      -1.003200
      3 O11         -0.9200    -5.1220     0.0650 os         1 46E      -0.568400
      4 O12         -2.6880    -5.5810    -1.7480 o          1 46E      -0.830000
      5 O13         -2.7510    -3.5030    -0.2910 os         1 46E      -0.597400
      6 O14         -3.3300    -5.8410     0.6160 o          1 46E      -0.830000
      7 C11         -3.0850    -2.8200     0.9370 c3         1 46E       0.219600
      8 C12         -1.9690    -2.9720     2.0220 c3         1 46E       0.149800
      9 C1           0.0720    -5.7890    -0.7390 c3         1 46E       0.216600
     10 C2           0.9420    -4.7990    -1.5820 c3         1 46E       0.153300
     11 C3           0.2040    -3.9620    -2.6610 c3         1 46E       0.175600
     12 O31         -0.4680    -2.8390    -2.0580 os         1 46E      -0.412100
     13 O32         -1.0250    -1.9800    -4.1100 o          1 46E      -0.516000
     14 C31         -1.0920    -1.9450    -2.8870 c          1 46E       0.628100
     15 C32         -1.6530    -0.7470    -2.1160 c3         1 46E      -0.140400
     16 C33         -3.1900    -0.6370    -2.2560 c3         1 46E      -0.061400
     17 C34         -3.7870     0.5330    -1.4450 c3         1 46E      -0.082400
     18 C35         -5.3250     0.6230    -1.5580 c3         1 46E      -0.071400
     19 C36         -5.9230     1.7900    -0.7430 c3         1 46E      -0.075400
     20 C37         -7.4610     1.8790    -0.8540 c3         1 46E      -0.073400
     21 C38         -8.0590     3.0470    -0.0400 c3         1 46E      -0.075400
     22 C39         -9.5970     3.1360    -0.1510 c3         1 46E      -0.074400
     23 C3A        -10.1950     4.3040     0.6630 c3         1 46E      -0.075400
     24 C3B        -11.7330     4.3950     0.5500 c3         1 46E      -0.074400
     25 C3C        -12.3310     5.5630     1.3640 c3         1 46E      -0.076400
     26 C3D        -13.8680     5.6540     1.2500 c3         1 46E      -0.075400
     27 C3E        -14.4650     6.8200     2.0620 c3         1 46E      -0.088100
     28 O21          1.6820    -3.8980    -0.7180 os         1 46E      -0.417100
     29 O22          3.1550    -5.5270    -0.0360 o          1 46E      -0.517000
     30 C21          2.7180    -4.3860     0.0360 c          1 46E       0.600100
     31 C22          3.3720    -3.2840     0.8700 c3         1 46E      -0.142400
     32 C23          4.5170    -2.5930     0.0920 c3         1 46E      -0.066400
     33 C24          5.1990    -1.4650     0.8970 c3         1 46E      -0.076400
     34 C25          6.3440    -0.7770     0.1210 c3         1 46E      -0.074400
     35 C26          7.0270     0.3500     0.9250 c3         1 46E      -0.074400
     36 C27          8.1740     1.0360     0.1510 c3         1 46E      -0.074400
     37 C28          8.8580     2.1630     0.9560 c3         1 46E      -0.074400
     38 C29         10.0060     2.8470     0.1820 c3         1 46E      -0.074400
     39 C2A         10.6900     3.9740     0.9870 c3         1 46E      -0.074400
     40 C2B         11.8390     4.6570     0.2140 c3         1 46E      -0.074400
     41 C2C         12.5220     5.7840     1.0190 c3         1 46E      -0.075400
     42 C2D         13.6720     6.4670     0.2460 c3         1 46E      -0.075400
     43 C2E         14.3540     7.5920     1.0490 c3         1 46E      -0.088100
     44 H1           0.0660    -2.8240     2.2590 hn         1 46E       0.388500
     45 H2          -0.4040    -3.0720     0.7330 hn         1 46E       0.388500
     46 H5          -3.2320    -1.7510     0.7350 h1         1 46E       0.029700
     47 H6          -4.0290    -3.2050     1.3430 h1         1 46E       0.029700
     48 H7          -1.8940    -4.0230     2.3290 h1         1 46E       0.016200
     49 H8          -2.2480    -2.3880     2.9090 h1         1 46E       0.016200
     50 H9           0.7300    -6.3750    -0.0850 h1         1 46E       0.033200
     51 H10         -0.3900    -6.5140    -1.4210 h1         1 46E       0.033200
     52 H11          1.6520    -5.4220    -2.1410 h1         1 46E       0.049700
     53 H12          0.9510    -3.6080    -3.3850 h1         1 46E       0.051200
     54 H13         -0.5060    -4.6010    -3.2010 h1         1 46E       0.051200
     55 H14         -1.4040    -0.8530    -1.0540 hc         1 46E       0.083700
     56 H15         -1.1970     0.1660    -2.5140 hc         1 46E       0.083700
     57 H16         -3.4470    -0.5100    -3.3150 hc         1 46E       0.045200
     58 H17         -3.6530    -1.5760    -1.9300 hc         1 46E       0.045200
     59 H18         -3.5110     0.4200    -0.3890 hc         1 46E       0.044700
     60 H19         -3.3440     1.4750    -1.7920 hc         1 46E       0.044700
     61 H20         -5.6030     0.7400    -2.6130 hc         1 46E       0.033700
     62 H21         -5.7670    -0.3200    -1.2120 hc         1 46E       0.033700
     63 H22         -5.6450     1.6740     0.3120 hc         1 46E       0.037700
     64 H23         -5.4820     2.7340    -1.0890 hc         1 46E       0.037700
     65 H24         -7.7400     1.9960    -1.9090 hc         1 46E       0.035200
     66 H25         -7.9020     0.9360    -0.5080 hc         1 46E       0.035200
     67 H26         -7.7810     2.9300     1.0150 hc         1 46E       0.036700
     68 H27         -7.6180     3.9900    -0.3860 hc         1 46E       0.036700
     69 H28         -9.8750     3.2530    -1.2060 hc         1 46E       0.035700
     70 H29        -10.0380     2.1930     0.1940 hc         1 46E       0.035700
     71 H30         -9.9180     4.1870     1.7180 hc         1 46E       0.036700
     72 H31         -9.7530     5.2470     0.3180 hc         1 46E       0.036700
     73 H32        -12.0100     4.5120    -0.5050 hc         1 46E       0.036200
     74 H33        -12.1750     3.4520     0.8950 hc         1 46E       0.036200
     75 H34        -12.0540     5.4460     2.4190 hc         1 46E       0.036700
     76 H35        -11.8880     6.5060     1.0190 hc         1 46E       0.036700
     77 H36        -14.1490     5.7740     0.1960 hc         1 46E       0.035700
     78 H37        -14.3150     4.7140     1.5960 hc         1 46E       0.035700
     79 H38        -14.2320     6.7100     3.1280 hc         1 46E       0.029700
     80 H39        -14.0640     7.7800     1.7160 hc         1 46E       0.029700
     81 H40        -15.5560     6.8440     1.9510 hc         1 46E       0.029700
     82 H41          2.6210    -2.5190     1.1020 hc         1 46E       0.073200
     83 H42          3.7760    -3.7210     1.7900 hc         1 46E       0.073200
     84 H43          5.2680    -3.3430    -0.1860 hc         1 46E       0.049700
     85 H44          4.1180    -2.1790    -0.8430 hc         1 46E       0.049700
     86 H45          4.4490    -0.7130     1.1720 hc         1 46E       0.037200
     87 H46          5.5960    -1.8790     1.8320 hc         1 46E       0.037200
     88 H47          7.0950    -1.5290    -0.1540 hc         1 46E       0.037700
     89 H48          5.9470    -0.3630    -0.8140 hc         1 46E       0.037700
     90 H49          6.2770     1.1030     1.1990 hc         1 46E       0.036700
     91 H50          7.4220    -0.0640     1.8620 hc         1 46E       0.036700
     92 H51          8.9240     0.2830    -0.1230 hc         1 46E       0.036700
     93 H52          7.7790     1.4500    -0.7850 hc         1 46E       0.036700
     94 H53          8.1080     2.9160     1.2280 hc         1 46E       0.036700
     95 H54          9.2510     1.7480     1.8920 hc         1 46E       0.036700
     96 H55         10.7550     2.0930    -0.0910 hc         1 46E       0.036200
     97 H56          9.6120     3.2610    -0.7550 hc         1 46E       0.036200
     98 H57          9.9400     4.7280     1.2590 hc         1 46E       0.036700
     99 H58         11.0820     3.5590     1.9240 hc         1 46E       0.036700
    100 H59         12.5880     3.9030    -0.0580 hc         1 46E       0.036200
    101 H60         11.4460     5.0710    -0.7230 hc         1 46E       0.036200
    102 H61         11.7730     6.5380     1.2900 hc         1 46E       0.036700
    103 H62         12.9150     5.3700     1.9560 hc         1 46E       0.036700
    104 H63         14.4240     5.7170    -0.0260 hc         1 46E       0.036200
    105 H64         13.2830     6.8840    -0.6910 hc         1 46E       0.036200
    106 H65         13.6330     8.3770     1.3060 hc         1 46E       0.030033
    107 H66         14.7850     7.1990     1.9780 hc         1 46E       0.030033
    108 H67         15.1610     8.0460     0.4610 hc         1 46E       0.030033
@<TRIPOS>BOND
     1     1     3 1   
     2     1     4 1   
     3     1     5 1   
     4     1     6 1   
     5     2     8 1   
     6     2    44 1   
     7     2    45 1   
     8     3     9 1   
     9     5     7 1   
    10     7     8 1   
    11     7    46 1   
    12     7    47 1   
    13     8    48 1   
    14     8    49 1   
    15     9    10 1   
    16     9    50 1   
    17     9    51 1   
    18    10    11 1   
    19    10    28 1   
    20    10    52 1   
    21    11    12 1   
    22    11    53 1   
    23    11    54 1   
    24    12    14 1   
    25    13    14 2   
    26    14    15 1   
    27    15    16 1   
    28    15    55 1   
    29    15    56 1   
    30    16    17 1   
    31    16    57 1   
    32    16    58 1   
    33    17    18 1   
    34    17    59 1   
    35    17    60 1   
    36    18    19 1   
    37    18    61 1   
    38    18    62 1   
    39    19    20 1   
    40    19    63 1   
    41    19    64 1   
    42    20    21 1   
    43    20    65 1   
    44    20    66 1   
    45    21    22 1   
    46    21    67 1   
    47    21    68 1   
    48    22    23 1   
    49    22    69 1   
    50    22    70 1   
    51    23    24 1   
    52    23    71 1   
    53    23    72 1   
    54    24    25 1   
    55    24    73 1   
    56    24    74 1   
    57    25    26 1   
    58    25    75 1   
    59    25    76 1   
    60    26    27 1   
    61    26    77 1   
    62    26    78 1   
    63    27    79 1   
    64    27    80 1   
    65    27    81 1   
    66    28    30 1   
    67    29    30 2   
    68    30    31 1   
    69    31    32 1   
    70    31    82 1   
    71    31    83 1   
    72    32    33 1   
    73    32    84 1   
    74    32    85 1   
    75    33    34 1   
    76    33    86 1   
    77    33    87 1   
    78    34    35 1   
    79    34    88 1   
    80    34    89 1   
    81    35    36 1   
    82    35    90 1   
    83    35    91 1   
    84    36    37 1   
    85    36    92 1   
    86    36    93 1   
    87    37    38 1   
    88    37    94 1   
    89    37    95 1   
    90    38    39 1   
    91    38    96 1   
    92    38    97 1   
    93    39    40 1   
    94    39    98 1   
    95    39    99 1   
    96    40    41 1   
    97    40   100 1   
    98    40   101 1   
    99    41    42 1   
   100    41   102 1   
   101    41   103 1   
   102    42    43 1   
   103    42   104 1   
   104    42   105 1   
   105    43   106 1   
   106    43   107 1   
   107    43   108 1   
@<TRIPOS>SUBSTRUCTURE
     1 46E         1 TEMP              0 ****  ****    0 ROOT
