@<TRIPOS>MOLECULE
46F
   62    65     1     0     0
SMALL
bcc


@<TRIPOS>ATOM
      1 C1          -1.1080    -4.6000    -0.0390 ca         1 46F      -0.075500
      2 C2          -2.6670    -2.7960     0.0710 ca         1 46F      -0.075500
      3 C3          -2.1500    -5.5060    -0.1270 ca         1 46F      -0.191500
      4 C4          -3.7260    -3.6910    -0.0190 ca         1 46F      -0.191500
      5 C5           3.4300    -1.0990    -0.2180 ca         1 46F      -0.136000
      6 C6           3.6970     0.8530     1.1910 ca         1 46F      -0.136000
      7 C7           2.8820    -0.3040    -1.2120 ca         1 46F      -0.018500
      8 C8           3.1540     1.6450     0.1960 ca         1 46F      -0.018500
      9 C9          -2.7530     2.8060     1.7390 ca         1 46F      -0.241300
     10 C10         -3.3440     2.3130     2.8630 ca         1 46F      -0.152300
     11 C11         -1.3470    -3.2320     0.0640 ca         1 46F      -0.165300
     12 C12         -3.4710    -5.0580    -0.1170 ca         1 46F       0.146100
     13 C13          3.8200    -0.5100     0.9720 ca         1 46F       0.152100
     14 C14          2.7430     1.0590    -0.9940 ca         1 46F      -0.292500
     15 C15         -2.7400     1.9860     0.5860 ca         1 46F       0.639200
     16 C16         -3.8930     1.0310     2.7800 ca         1 46F       0.398300
     17 C17         -0.2000     0.1140    -0.4930 c          1 46F       0.643100
     18 C18         -1.4200     3.5960    -0.7540 c6         1 46F       0.212800
     19 C19          0.0680     3.2860    -0.7010 c6         1 46F       0.177800
     20 C20         -1.9490     1.4670    -1.6720 c6         1 46F       0.226800
     21 C21         -0.4740     1.0410    -1.6800 c6         1 46F       0.095500
     22 C22         -5.7790    -5.5990    -0.2150 c3         1 46F       0.124700
     23 C23         -0.2070    -2.2550     0.1790 c3         1 46F       0.154300
     24 C24          5.6190    -1.5340     2.0610 c3         1 46F       0.858700
     25 N25         -3.2900     0.7730     0.6100 nb         1 46F      -0.406000
     26 N26         -3.8600     0.3100     1.6980 nb         1 46F      -0.271000
     27 N27         -2.2180     2.3990    -0.6030 nh         1 46F      -0.762300
     28 N28          0.3650     2.2360    -1.6830 n3         1 46F      -0.731500
     29 N29         -0.3160    -1.1890    -0.7890 ns         1 46F      -0.559900
     30 O30          0.0530     0.5480     0.6170 o          1 46F      -0.599100
     31 O31          2.5270     3.3790    -2.1940 o          1 46F      -0.603300
     32 O32          1.8750     1.2950    -3.4410 o          1 46F      -0.603300
     33 O33         -4.4250    -6.0050    -0.2090 os         1 46F      -0.318900
     34 F35          6.3190    -0.4080     2.2090 f          1 46F      -0.226967
     35 F36          5.8430    -2.3070     3.1090 f          1 46F      -0.226967
     36 F37          6.0940    -2.1440     0.9750 f          1 46F      -0.226967
     37 S38          1.9240     2.0580    -2.2050 sy         1 46F       1.309200
     38 CL39        -4.6600     0.3300     4.1630 cl         1 46F      -0.153000
     39 H1          -0.0890    -4.9680    -0.0560 ha         1 46F       0.143000
     40 H2          -2.8830    -1.7360     0.1420 ha         1 46F       0.143000
     41 H3          -1.9480    -6.5670    -0.2100 ha         1 46F       0.143500
     42 H4          -4.7370    -3.3050    -0.0080 ha         1 46F       0.143500
     43 H5           3.5350    -2.1640    -0.3700 ha         1 46F       0.157500
     44 H6           4.0040     1.2910     2.1300 ha         1 46F       0.157500
     45 H7           2.5760    -0.7570    -2.1450 ha         1 46F       0.157000
     46 H8           3.0580     2.7100     0.3610 ha         1 46F       0.157000
     47 H9          -2.3130     3.7910     1.7570 ha         1 46F       0.150000
     48 H10         -3.3820     2.8880     3.7770 ha         1 46F       0.161000
     49 H18         -1.6570     4.3430    -0.0020 h1         1 46F       0.066200
     50 H18A        -1.6650     4.0380    -1.7220 h1         1 46F       0.066200
     51 H19          0.6080     4.1890    -0.9730 h1         1 46F       0.075700
     52 H19A         0.3610     2.9940     0.3080 h1         1 46F       0.075700
     53 H20         -2.1680     1.9580    -2.6230 h1         1 46F       0.083700
     54 H20A        -2.5850     0.5900    -1.5950 h1         1 46F       0.083700
     55 H21         -0.3160     0.5090    -2.6200 h1         1 46F       0.096700
     56 H22         -6.0570    -5.0910     0.7120 h1         1 46F       0.041700
     57 H22A        -6.0060    -4.9410    -1.0580 h1         1 46F       0.041700
     58 H22B        -6.3730    -6.5050    -0.3090 h1         1 46F       0.041700
     59 H23         -0.1850    -1.8000     1.1690 h1         1 46F       0.062200
     60 H23A         0.7450    -2.7790     0.0540 h1         1 46F       0.062200
     61 HN29        -0.4880    -1.4560    -1.7460 hn         1 46F       0.318500
     62 O34          4.2980    -1.3140     1.9940 os         1 46F      -0.384900
@<TRIPOS>BOND
     1     1     3 ar  
     2     1    11 ar  
     3     1    39 1   
     4     2     4 ar  
     5     2    11 ar  
     6     2    40 1   
     7     3    12 ar  
     8     3    41 1   
     9     4    12 ar  
    10     4    42 1   
    11     5     7 ar  
    12     5    13 ar  
    13     5    43 1   
    14     6     8 ar  
    15     6    13 ar  
    16     6    44 1   
    17     7    14 ar  
    18     7    45 1   
    19     8    14 ar  
    20     8    46 1   
    21     9    10 ar  
    22     9    15 ar  
    23     9    47 1   
    24    10    16 ar  
    25    10    48 1   
    26    11    23 1   
    27    12    33 1   
    28    13    62 1   
    29    14    37 1   
    30    15    25 ar  
    31    15    27 1   
    32    16    26 ar  
    33    16    38 1   
    34    17    21 1   
    35    17    29 1   
    36    17    30 2   
    37    18    19 1   
    38    18    27 1   
    39    18    49 1   
    40    18    50 1   
    41    19    28 1   
    42    19    51 1   
    43    19    52 1   
    44    20    21 1   
    45    20    27 1   
    46    20    53 1   
    47    20    54 1   
    48    21    28 1   
    49    21    55 1   
    50    22    33 1   
    51    22    56 1   
    52    22    57 1   
    53    22    58 1   
    54    23    29 1   
    55    23    59 1   
    56    23    60 1   
    57    24    34 1   
    58    24    35 1   
    59    24    36 1   
    60    24    62 1   
    61    25    26 ar  
    62    28    37 1   
    63    29    61 1   
    64    31    37 2   
    65    32    37 2   
@<TRIPOS>SUBSTRUCTURE
     1 46F         1 TEMP              0 ****  ****    0 ROOT
