@<TRIPOS>MOLECULE
46F
   62    65     1     0     0
SMALL
No Charge or Current Charge


@<TRIPOS>ATOM
      1 C1          -2.6170    -3.2300     1.4970 ca         1 46F      -0.057500
      2 C2          -3.1890    -1.3070     2.8720 ca         1 46F      -0.057500
      3 C3          -3.9760    -3.5770     1.4210 ca         1 46F      -0.173500
      4 C4          -4.5500    -1.6550     2.7950 ca         1 46F      -0.173500
      5 C5           4.8940     0.9860    -2.5350 ca         1 46F      -0.118000
      6 C6           5.4150     0.1340    -0.3180 ca         1 46F      -0.118000
      7 C7           3.8290     1.7320    -2.0040 ca         1 46F      -0.000500
      8 C8           4.3500     0.8790     0.2180 ca         1 46F      -0.000500
      9 C9          -4.0390    -0.0730    -0.5630 ca         1 46F      -0.158000
     10 C10         -5.1620    -0.9130    -0.7090 ca         1 46F      -0.069000
     11 C11         -2.2170    -2.0950     2.2270 ca         1 46F      -0.165300
     12 C12         -4.9470    -2.7970     2.0650 ca         1 46F       0.146100
     13 C13          5.6920     0.1840    -1.7030 ca         1 46F       0.152100
     14 C14          3.5520     1.6780    -0.6250 ca         1 46F      -0.292500
     15 C15         -2.8790    -0.3670    -1.3080 ca         1 46F       0.573900
     16 C16         -5.0560    -2.0080    -1.5830 ca         1 46F       0.333000
     17 C17          0.7700    -0.4350     0.6860 c          1 46F       0.576100
     18 C18         -1.6950     1.8700    -1.0170 c6         1 46F       0.212800
     19 C19         -0.5000     2.3730    -0.1510 c6         1 46F       0.177800
     20 C20         -0.3520    -0.1380    -1.6320 c6         1 46F       0.226800
     21 C21          0.8150     0.3230    -0.6930 c6         1 46F       0.095500
     22 C22         -7.3410    -2.4400     2.5500 c3         1 46F       0.147900
     23 C23         -0.7530    -1.6890     2.2620 c3         1 46F       0.154300
     24 C24          7.6230    -1.3910    -1.5930 c3         1 46F       0.518000
     25 N25         -2.8420    -1.4450    -2.1320 nb         1 46F      -0.406000
     26 N26         -3.9160    -2.2570    -2.2730 nb         1 46F      -0.271000
     27 N27         -1.6850     0.3820    -1.1720 nh         1 46F      -0.762300
     28 N28          0.8150     1.8410    -0.6190 n3         1 46F      -0.731500
     29 N29         -0.4560    -0.9360     1.0570 ns         1 46F      -0.492900
     30 O30          1.7520    -0.5790     1.4020 o          1 46F      -0.599100
     31 O31          2.1120     2.4820     1.4990 o          1 46F      -0.532500
     32 O32          2.2110     3.9460    -0.6070 o          1 46F      -0.532500
     33 O33         -6.2670    -3.1800     1.9430 os         1 46F      -0.342100
     34 F35          6.9750    -2.4130    -0.9880 f          1 46F      -0.105667
     35 F36          8.5190    -1.9420    -2.4420 f          1 46F      -0.105667
     36 F37          8.3330    -0.7290    -0.6500 f          1 46F      -0.105667
     37 S38          2.1760     2.6300     0.0420 sy         1 46F       1.167600
     38 Cl39        -6.3990    -3.1200    -1.8110 cl         1 46F      -0.153000
     39 H1          -1.8760    -3.8370     0.9800 ha         1 46F       0.125000
     40 H2          -2.8930    -0.4190     3.4260 ha         1 46F       0.125000
     41 H3          -4.2800    -4.4520     0.8520 ha         1 46F       0.125500
     42 H4          -5.2770    -1.0270     3.3000 ha         1 46F       0.125500
     43 H5           5.1030     1.0280    -3.6000 ha         1 46F       0.139500
     44 H6           6.0060    -0.4720     0.3610 ha         1 46F       0.139500
     45 H7           3.2170     2.3440    -2.6660 ha         1 46F       0.139000
     46 H8           4.1480     0.8270     1.2870 ha         1 46F       0.139000
     47 H9          -4.0660     0.7590     0.1320 ha         1 46F       0.132000
     48 H10         -6.0780    -0.7350    -0.1520 ha         1 46F       0.143000
     49 H18         -2.6270     2.2270    -0.5590 h1         1 46F       0.066200
     50 H18A        -1.6290     2.3400    -2.0090 h1         1 46F       0.066200
     51 H19         -0.5050     3.4730    -0.1810 h1         1 46F       0.075700
     52 H19A        -0.6780     2.0850     0.8950 h1         1 46F       0.075700
     53 H20         -0.1460     0.2230    -2.6510 h1         1 46F       0.083700
     54 H20A        -0.3390    -1.2370    -1.6810 h1         1 46F       0.083700
     55 H21          1.7380    -0.0350    -1.1670 h1         1 46F       0.096700
     56 H22         -7.2230    -2.4050     3.6400 h1         1 46F       0.041700
     57 H22A        -7.3730    -1.4120     2.1660 h1         1 46F       0.041700
     58 H22B        -8.3040    -2.9150     2.3260 h1         1 46F       0.041700
     59 H23         -0.5460    -1.0660     3.1430 h1         1 46F       0.062200
     60 H23A        -0.1120    -2.5800     2.3040 h1         1 46F       0.062200
     61 HN29        -1.2260    -0.7100     0.4360 hn         1 46F       0.318500
     62 O34          6.7200    -0.5200    -2.3030 os         1 46F      -0.408100
@<TRIPOS>BOND
     1     1     3 ar  
     2     1    11 ar  
     3     1    39 1   
     4     2     4 ar  
     5     2    11 ar  
     6     2    40 1   
     7     3    12 ar  
     8     3    41 1   
     9     4    12 ar  
    10     4    42 1   
    11     5     7 ar  
    12     5    13 ar  
    13     5    43 1   
    14     6     8 ar  
    15     6    13 ar  
    16     6    44 1   
    17     7    14 ar  
    18     7    45 1   
    19     8    14 ar  
    20     8    46 1   
    21     9    10 ar  
    22     9    15 ar  
    23     9    47 1   
    24    10    16 ar  
    25    10    48 1   
    26    11    23 1   
    27    12    33 1   
    28    13    62 1   
    29    14    37 1   
    30    15    25 ar  
    31    15    27 1   
    32    16    26 ar  
    33    16    38 1   
    34    17    21 1   
    35    17    29 1   
    36    17    30 2   
    37    18    19 1   
    38    18    27 1   
    39    18    49 1   
    40    18    50 1   
    41    19    28 1   
    42    19    51 1   
    43    19    52 1   
    44    20    21 1   
    45    20    27 1   
    46    20    53 1   
    47    20    54 1   
    48    21    28 1   
    49    21    55 1   
    50    22    33 1   
    51    22    56 1   
    52    22    57 1   
    53    22    58 1   
    54    23    29 1   
    55    23    59 1   
    56    23    60 1   
    57    24    34 1   
    58    24    35 1   
    59    24    36 1   
    60    24    62 1   
    61    25    26 ar  
    62    28    37 1   
    63    29    61 1   
    64    31    37 2   
    65    32    37 2   
@<TRIPOS>SUBSTRUCTURE
     1 46F         1 TEMP              0 ****  ****    0 ROOT
