@<TRIPOS>MOLECULE
46G
   48    52     1     0     0
SMALL
bcc


@<TRIPOS>ATOM
      1 C22         -8.0780     1.8170    -1.9320 c3         1 46G      -0.135400
      2 C21         -6.7010     1.4790    -1.4890 cc         1 46G       0.345600
      3 C20         -6.2370     0.2480    -0.9530 cc         1 46G      -0.373600
      4 N5          -5.7330     2.3470    -1.5580 nd         1 46G      -0.352300
      5 O2          -4.6190     1.7250    -1.0770 os         1 46G      -0.123100
      6 C7          -4.9220     0.4760    -0.7180 cd         1 46G       0.347200
      7 C1          -3.8620    -0.3560    -0.1730 cd         1 46G      -0.157500
      8 C2          -4.1660    -1.7110     0.1760 cd         1 46G      -0.153000
      9 C3          -3.1940    -2.4980     0.6760 cc         1 46G       0.182900
     10 F1          -3.4050    -3.7640     1.0110 f          1 46G      -0.098900
     11 C5          -2.6080     0.1370    -0.0030 cc         1 46G      -0.022300
     12 N1          -1.6470    -0.6860     0.5230 na         1 46G      -0.069200
     13 C4          -1.8850    -1.9940     0.8630 cc         1 46G      -0.090300
     14 N2          -0.7930    -2.5540     1.3200 nd         1 46G      -0.057000
     15 N3           0.1690    -1.6200     1.2750 nd         1 46G      -0.325700
     16 C6          -0.3200    -0.5060     0.8100 cc         1 46G       0.293800
     17 C8           0.4220     0.7880     0.6410 c3         1 46G       0.249300
     18 C18         -0.0610     1.8600     1.6070 c3         1 46G      -0.118100
     19 F2           0.1250     1.2270    -0.6530 f          1 46G      -0.239300
     20 C9           1.9130     0.5620     0.7510 ca         1 46G      -0.101300
     21 C14          2.7230     0.6610    -0.3460 ca         1 46G      -0.082000
     22 C13          4.1210     0.4690    -0.2270 ca         1 46G      -0.114300
     23 C17          4.9900     0.5660    -1.3260 ca         1 46G      -0.131000
     24 C16          6.3360     0.3670    -1.1410 ca         1 46G       0.017800
     25 O1           7.1420     0.4660    -2.2090 os         1 46G      -0.312900
     26 C19          8.5330     0.2500    -2.0450 c3         1 46G       0.124700
     27 C15          6.7940     0.0720     0.1690 ca         1 46G       0.362200
     28 N4           6.0020    -0.0230     1.2040 nb         1 46G      -0.635000
     29 C12          4.6780     0.1680     1.0380 ca         1 46G       0.378600
     30 C11          3.8180     0.0660     2.1560 ca         1 46G      -0.152300
     31 C10          2.4750     0.2570     2.0170 ca         1 46G      -0.102000
     32 H1          -8.7820     1.6980    -1.1090 hc         1 46G       0.059033
     33 H2          -8.1340     2.8420    -2.2910 hc         1 46G       0.059033
     34 H3          -8.3970     1.1510    -2.7340 hc         1 46G       0.059033
     35 H4          -6.8130    -0.6440    -0.7770 ha         1 46G       0.174000
     36 H5          -5.1620    -2.1060     0.0350 ha         1 46G       0.166000
     37 H6          -2.3150     1.1400    -0.2630 h4         1 46G       0.198000
     38 H7           0.1680     1.5850     2.6350 hc         1 46G       0.060033
     39 H8           0.4380     2.8040     1.3880 hc         1 46G       0.060033
     40 H9          -1.1370     2.0160     1.5380 hc         1 46G       0.060033
     41 H10          2.3220     0.8910    -1.3240 ha         1 46G       0.149000
     42 H11          4.6010     0.7970    -2.3110 ha         1 46G       0.153000
     43 H12          8.9780     0.3700    -3.0290 h1         1 46G       0.044033
     44 H13          8.9820     0.9780    -1.3660 h1         1 46G       0.044033
     45 H14          8.7500    -0.7570    -1.6820 h1         1 46G       0.044033
     46 H15          7.8490    -0.0890     0.3610 h4         1 46G       0.022100
     47 H16          4.2460    -0.1690     3.1220 ha         1 46G       0.152000
     48 H17          1.8370     0.1700     2.8850 ha         1 46G       0.140000
@<TRIPOS>BOND
     1     1     2 1   
     2     1    32 1   
     3     1    33 1   
     4     1    34 1   
     5     2     3 1   
     6     2     4 2   
     7     3     6 2   
     8     3    35 1   
     9     4     5 1   
    10     5     6 1   
    11     6     7 1   
    12     7     8 1   
    13     7    11 2   
    14     8     9 2   
    15     8    36 1   
    16     9    10 1   
    17     9    13 1   
    18    11    12 1   
    19    11    37 1   
    20    12    13 1   
    21    12    16 1   
    22    13    14 2   
    23    14    15 1   
    24    15    16 2   
    25    16    17 1   
    26    17    18 1   
    27    17    19 1   
    28    17    20 1   
    29    18    38 1   
    30    18    39 1   
    31    18    40 1   
    32    20    21 ar  
    33    20    31 ar  
    34    21    22 ar  
    35    21    41 1   
    36    22    23 ar  
    37    22    29 ar  
    38    23    24 ar  
    39    23    42 1   
    40    24    25 1   
    41    24    27 ar  
    42    25    26 1   
    43    26    43 1   
    44    26    44 1   
    45    26    45 1   
    46    27    28 ar  
    47    27    46 1   
    48    28    29 ar  
    49    29    30 ar  
    50    30    31 ar  
    51    30    47 1   
    52    31    48 1   
@<TRIPOS>SUBSTRUCTURE
     1 46G         1 TEMP              0 ****  ****    0 ROOT
