@<TRIPOS>MOLECULE
46G
   48    52     1     0     0
SMALL
No Charge or Current Charge


@<TRIPOS>ATOM
      1 C22         -8.0380     1.6090    -1.9940 c3         1 46G      -0.135400
      2 C21         -6.6260     1.5020    -1.4970 cc         1 46G       0.280300
      3 C20         -6.0320     0.2700    -1.1780 cc         1 46G      -0.225000
      4 N5          -5.8280     2.5440    -1.3200 nd         1 46G      -0.352300
      5 O2          -4.5990     1.9560    -0.8420 os         1 46G      -0.078700
      6 C7          -4.7790     0.5990    -0.7770 cd         1 46G       0.237500
      7 C1          -3.7610    -0.3280    -0.3390 cd         1 46G      -0.157500
      8 C2          -4.0140    -1.7590    -0.2910 cd         1 46G      -0.135000
      9 C3          -3.0140    -2.5950     0.1420 cc         1 46G       0.218000
     10 F1          -3.1910    -3.9230     0.2190 f          1 46G      -0.134000
     11 C5          -2.5360     0.2430     0.0300 cc         1 46G      -0.055000
     12 N1          -1.5640    -0.6850     0.4400 na         1 46G       0.032200
     13 C4          -1.7690    -2.0230     0.5180 cc         1 46G      -0.141000
     14 N2          -0.6590    -2.5730     0.9720 nd         1 46G      -0.057000
     15 N3           0.2590    -1.5510     1.1970 nd         1 46G      -0.325700
     16 C6          -0.2930    -0.3820     0.8670 cc         1 46G       0.293800
     17 C8           0.3700     0.9910     0.9870 c3         1 46G       0.268000
     18 C18         -0.2190     1.7610     2.1960 c3         1 46G      -0.118100
     19 F2           0.0830     1.7440    -0.1060 f          1 46G      -0.258000
     20 C9           1.9080     0.8400     1.0750 ca         1 46G      -0.101300
     21 C14          2.6490     0.6340    -0.1100 ca         1 46G      -0.064000
     22 C13          4.0470     0.4750    -0.0740 ca         1 46G      -0.049000
     23 C17          4.7630     0.2760    -1.2690 ca         1 46G      -0.113000
     24 C16          6.1560     0.1200    -1.2040 ca         1 46G       0.083100
     25 O1           6.8530    -0.0740    -2.3830 os         1 46G      -0.336100
     26 C19          8.2820    -0.2420    -2.4000 c3         1 46G       0.147900
     27 C15          6.7770     0.1710     0.0700 ca         1 46G       0.296900
     28 N4           6.0910     0.3610     1.2240 nb         1 46G      -0.635000
     29 C12          4.7450     0.5110     1.1590 ca         1 46G       0.248000
     30 C11          4.0050     0.7040     2.3370 ca         1 46G      -0.069000
     31 C10          2.6090     0.8630     2.3040 ca         1 46G      -0.084000
     32 H1          -8.7380     1.1980    -1.2580 hc         1 46G       0.059033
     33 H2          -8.3160     2.6530    -2.1800 hc         1 46G       0.059033
     34 H3          -8.1610     1.0540    -2.9300 hc         1 46G       0.059033
     35 H4          -6.5000    -0.7030    -1.2480 ha         1 46G       0.156000
     36 H5          -4.9670    -2.1860    -0.5790 ha         1 46G       0.148000
     37 H6          -2.2940     1.2970     0.0170 h4         1 46G       0.180000
     38 H7          -0.1600     1.1630     3.1130 hc         1 46G       0.060033
     39 H8           0.3190     2.7030     2.3550 hc         1 46G       0.060033
     40 H9          -1.2750     2.0030     2.0320 hc         1 46G       0.060033
     41 H10          2.1350     0.5930    -1.0690 ha         1 46G       0.131000
     42 H11          4.2550     0.2420    -2.2300 ha         1 46G       0.135000
     43 H12          8.6360    -0.3820    -3.4290 h1         1 46G       0.044033
     44 H13          8.7840     0.6420    -1.9860 h1         1 46G       0.044033
     45 H14          8.5790    -1.1220    -1.8160 h1         1 46G       0.044033
     46 H15          7.8540     0.0560     0.1810 h4         1 46G       0.022100
     47 H16          4.5230     0.7280     3.2920 ha         1 46G       0.134000
     48 H17          2.0890     0.9950     3.2490 ha         1 46G       0.122000
@<TRIPOS>BOND
     1     1     2 1   
     2     1    32 1   
     3     1    33 1   
     4     1    34 1   
     5     2     3 1   
     6     2     4 2   
     7     3     6 2   
     8     3    35 1   
     9     4     5 1   
    10     5     6 1   
    11     6     7 1   
    12     7     8 1   
    13     7    11 2   
    14     8     9 2   
    15     8    36 1   
    16     9    10 1   
    17     9    13 1   
    18    11    12 1   
    19    11    37 1   
    20    12    13 1   
    21    12    16 1   
    22    13    14 2   
    23    14    15 1   
    24    15    16 2   
    25    16    17 1   
    26    17    18 1   
    27    17    19 1   
    28    17    20 1   
    29    18    38 1   
    30    18    39 1   
    31    18    40 1   
    32    20    21 ar  
    33    20    31 ar  
    34    21    22 ar  
    35    21    41 1   
    36    22    23 ar  
    37    22    29 ar  
    38    23    24 ar  
    39    23    42 1   
    40    24    25 1   
    41    24    27 ar  
    42    25    26 1   
    43    26    43 1   
    44    26    44 1   
    45    26    45 1   
    46    27    28 ar  
    47    27    46 1   
    48    28    29 ar  
    49    29    30 ar  
    50    30    31 ar  
    51    30    47 1   
    52    31    48 1   
@<TRIPOS>SUBSTRUCTURE
     1 46G         1 TEMP              0 ****  ****    0 ROOT
