@<TRIPOS>MOLECULE
46H
   34    35     1     0     0
SMALL
abcg2


@<TRIPOS>ATOM
      1 C4           3.7970    -0.6000    -0.4230 c6         1 46H       0.148800
      2 C5           2.3410     1.1050     0.4590 c6         1 46H       0.161800
      3 C6          -2.5800     1.1740     0.2750 c6         1 46H       0.096500
      4 N1          -1.3350     0.4680     0.5380 n          1 46H      -0.408800
      5 C7          -3.4300     0.4080    -0.7310 c6         1 46H      -0.098900
      6 C8          -3.6920    -1.0120    -0.2400 c6         1 46H      -0.074400
      7 C9          -2.3830    -1.7100     0.1150 c6         1 46H      -0.098900
      8 C10         -1.5510    -0.8660     1.0740 c6         1 46H       0.096500
      9 O           -0.0880     2.0830    -0.4130 o          1 46H      -0.608100
     10 C           -0.1530     0.9880     0.1380 c          1 46H       0.613100
     11 C1           1.1150     0.1840     0.3710 c6         1 46H      -0.176700
     12 N            3.5920     0.3870     0.6250 n7         1 46H      -0.846400
     13 C3           2.6410    -1.5830    -0.5680 c6         1 46H      -0.114400
     14 C2           1.3220    -0.8410    -0.7550 c6         1 46H      -0.071400
     15 H1           3.9310    -0.0640    -1.3700 h1         1 46H       0.054200
     16 H2           4.7310    -1.1310    -0.2290 h1         1 46H       0.054200
     17 H3           2.4140     1.7070    -0.4500 h1         1 46H       0.068700
     18 H4           2.2280     1.8020     1.2920 h1         1 46H       0.068700
     19 H6          -2.3600     2.1790    -0.0750 h1         1 46H       0.054450
     20 H7          -4.3690     0.9410    -0.8920 hc         1 46H       0.048950
     21 H8          -2.9080     0.3800    -1.6920 hc         1 46H       0.048950
     22 H9          -4.3350    -0.9760     0.6450 hc         1 46H       0.041700
     23 H10         -4.2340    -1.5850    -0.9960 hc         1 46H       0.041700
     24 H11         -2.5760    -2.6830     0.5730 hc         1 46H       0.048950
     25 H12         -1.8060    -1.8970    -0.7960 hc         1 46H       0.048950
     26 H13         -0.6060    -1.3560     1.2920 h1         1 46H       0.054450
     27 H14         -2.0790    -0.7690     2.0290 h1         1 46H       0.054450
     28 H15          1.0580    -0.3570     1.3210 hc         1 46H       0.053700
     29 H16          3.5960    -0.0790     1.5250 hn         1 46H       0.401000
     30 H18          2.8160    -2.2520    -1.4150 hc         1 46H       0.043200
     31 H19          2.5820    -2.2150     0.3250 hc         1 46H       0.043200
     32 H20          0.4960    -1.5540    -0.7960 hc         1 46H       0.048700
     33 H21          1.3280    -0.3180    -1.7180 hc         1 46H       0.048700
     34 H5          -3.1240     1.2670     1.2210 h1         1 46H       0.054450
@<TRIPOS>BOND
     1     1    12 1   
     2     1    13 1   
     3     1    15 1   
     4     1    16 1   
     5     2    11 1   
     6     2    12 1   
     7     2    17 1   
     8     2    18 1   
     9     3     4 1   
    10     3     5 1   
    11     3    19 1   
    12     3    34 1   
    13     4     8 1   
    14     4    10 1   
    15     5     6 1   
    16     5    20 1   
    17     5    21 1   
    18     6     7 1   
    19     6    22 1   
    20     6    23 1   
    21     7     8 1   
    22     7    24 1   
    23     7    25 1   
    24     8    26 1   
    25     8    27 1   
    26     9    10 2   
    27    10    11 1   
    28    11    14 1   
    29    11    28 1   
    30    12    29 1   
    31    13    14 1   
    32    13    30 1   
    33    13    31 1   
    34    14    32 1   
    35    14    33 1   
@<TRIPOS>SUBSTRUCTURE
     1 46H         1 TEMP              0 ****  ****    0 ROOT
