@<TRIPOS>MOLECULE
46H
   34    35     1     0     0
SMALL
No Charge or Current Charge


@<TRIPOS>ATOM
      1 C4           3.9590    -0.5790    -0.3290 c6         1 46H       0.148800
      2 C5           2.3790     1.1800     0.3980 c6         1 46H       0.161800
      3 C6          -2.6370     1.2080     0.3870 c6         1 46H       0.096500
      4 N1          -1.3590     0.4590     0.5320 n          1 46H      -0.408800
      5 C7          -3.5880     0.5000    -0.6070 c6         1 46H      -0.098900
      6 C8          -3.8380    -0.9660    -0.1790 c6         1 46H      -0.074400
      7 C9          -2.4980    -1.7130     0.0250 c6         1 46H      -0.098900
      8 C10         -1.5720    -0.9420     0.9980 c6         1 46H       0.096500
      9 O           -0.1580     1.9370    -0.7500 o          1 46H      -0.608100
     10 C           -0.1520     0.9370    -0.0420 c          1 46H       0.613100
     11 C1           1.1850     0.2090     0.2290 c6         1 46H      -0.176700
     12 N            3.6250     0.4310     0.7050 n7         1 46H      -0.846400
     13 C3           2.8160    -1.6120    -0.4830 c6         1 46H      -0.114400
     14 C2           1.4720    -0.9160    -0.8050 c6         1 46H      -0.071400
     15 H1           4.1340    -0.0770    -1.2940 h1         1 46H       0.054200
     16 H2           4.8900    -1.0980    -0.0540 h1         1 46H       0.054200
     17 H3           2.5170     1.7610    -0.5270 h1         1 46H       0.068700
     18 H4           2.1640     1.8960     1.2070 h1         1 46H       0.068700
     19 H6          -2.4550     2.2400     0.0540 h1         1 46H       0.054450
     20 H7          -4.5410     1.0430    -0.6650 hc         1 46H       0.048950
     21 H8          -3.1490     0.5230    -1.6140 hc         1 46H       0.048950
     22 H9          -4.4170    -0.9840     0.7560 hc         1 46H       0.041700
     23 H10         -4.4470    -1.4820    -0.9340 hc         1 46H       0.041700
     24 H11         -2.6850    -2.7240     0.4110 hc         1 46H       0.048950
     25 H12         -1.9910    -1.8340    -0.9420 hc         1 46H       0.048950
     26 H13         -0.6330    -1.4970     1.1030 h1         1 46H       0.054450
     27 H14         -2.0370    -0.9150     1.9950 h1         1 46H       0.054450
     28 H15          1.0610    -0.3110     1.1860 hc         1 46H       0.053700
     29 H16          3.4930    -0.0600     1.5980 hn         1 46H       0.401000
     30 H18          3.0670    -2.3280    -1.2770 hc         1 46H       0.043200
     31 H19          2.7200    -2.1960     0.4430 hc         1 46H       0.043200
     32 H20          0.6610    -1.6550    -0.8200 hc         1 46H       0.048700
     33 H21          1.5170    -0.4830    -1.8150 hc         1 46H       0.048700
     34 H5          -3.1230     1.2730     1.3710 h1         1 46H       0.054450
@<TRIPOS>BOND
     1     1    12 1   
     2     1    13 1   
     3     1    15 1   
     4     1    16 1   
     5     2    11 1   
     6     2    12 1   
     7     2    17 1   
     8     2    18 1   
     9     3     4 1   
    10     3     5 1   
    11     3    19 1   
    12     3    34 1   
    13     4     8 1   
    14     4    10 1   
    15     5     6 1   
    16     5    20 1   
    17     5    21 1   
    18     6     7 1   
    19     6    22 1   
    20     6    23 1   
    21     7     8 1   
    22     7    24 1   
    23     7    25 1   
    24     8    26 1   
    25     8    27 1   
    26     9    10 2   
    27    10    11 1   
    28    11    14 1   
    29    11    28 1   
    30    12    29 1   
    31    13    14 1   
    32    13    30 1   
    33    13    31 1   
    34    14    32 1   
    35    14    33 1   
@<TRIPOS>SUBSTRUCTURE
     1 46H         1 TEMP              0 ****  ****    0 ROOT
