@<TRIPOS>MOLECULE
46J
   34    35     1     0     0
SMALL
No Charge or Current Charge


@<TRIPOS>ATOM
      1 C1          -1.1450    -0.1650     0.1390 c6         1 46J      -0.139700
      2 C2          -2.1540    -1.0030     0.9750 c6         1 46J      -0.064400
      3 N1           1.3410    -0.1920    -0.5550 n          1 46J      -0.408800
      4 C3          -3.4070    -0.1570     1.3090 c6         1 46J      -0.078400
      5 C            0.1520    -0.9120    -0.2570 c          1 46J       0.606100
      6 C10          1.5250     1.2780    -0.3840 c6         1 46J       0.094500
      7 C9           2.4950     1.5640     0.7860 c6         1 46J      -0.098900
      8 C8           3.8500     0.8460     0.5620 c6         1 46J      -0.073400
      9 C7           3.6400    -0.6640     0.2850 c6         1 46J      -0.098900
     10 C6           2.6220    -0.8840    -0.8610 c6         1 46J       0.094500
     11 C5          -1.8090     0.4900    -1.0970 c6         1 46J       0.164800
     12 N           -3.0070     1.2740    -0.7070 n7         1 46J      -0.867400
     13 C4          -4.0140     0.4690     0.0280 c6         1 46J       0.158800
     14 H1          -0.8330     0.6820     0.7580 hc         1 46J       0.069700
     15 H2          -2.4590    -1.8970     0.4110 hc         1 46J       0.055200
     16 H3          -1.6810    -1.3590     1.9010 hc         1 46J       0.055200
     17 H4          -4.1590    -0.7800     1.8110 hc         1 46J       0.046200
     18 H5          -3.1390     0.6410     2.0150 hc         1 46J       0.046200
     19 H6           1.9530     1.6860    -1.3110 h1         1 46J       0.055700
     20 H7           0.5810     1.8100    -0.2250 h1         1 46J       0.055700
     21 H8           2.6540     2.6460     0.8840 hc         1 46J       0.049450
     22 H9           2.0440     1.2240     1.7280 hc         1 46J       0.049450
     23 H10          4.3730     1.3060    -0.2880 hc         1 46J       0.041200
     24 H11          4.4990     0.9820     1.4380 hc         1 46J       0.041200
     25 H12          4.5980    -1.1370     0.0300 hc         1 46J       0.049450
     26 H13          3.2770    -1.1600     1.1950 hc         1 46J       0.049450
     27 H14          2.4700    -1.9610    -1.0150 h1         1 46J       0.055700
     28 H15          3.0320    -0.4800    -1.7990 h1         1 46J       0.055700
     29 H16         -1.0940     1.1480    -1.6110 h1         1 46J       0.036200
     30 H17         -2.1040    -0.2950    -1.8100 h1         1 46J       0.036200
     31 H18         -3.4450     1.6550    -1.5560 hn         1 46J       0.413000
     32 H20         -4.3920    -0.3300    -0.6260 h1         1 46J       0.030700
     33 H21         -4.8660     1.1080     0.3000 h1         1 46J       0.030700
     34 O            0.1310    -2.1320    -0.3770 o          1 46J      -0.610100
@<TRIPOS>BOND
     1     1     2 1   
     2     1     5 1   
     3     1    11 1   
     4     1    14 1   
     5     2     4 1   
     6     2    15 1   
     7     2    16 1   
     8     3     5 1   
     9     3     6 1   
    10     3    10 1   
    11     4    13 1   
    12     4    17 1   
    13     4    18 1   
    14     5    34 2   
    15     6     7 1   
    16     6    19 1   
    17     6    20 1   
    18     7     8 1   
    19     7    21 1   
    20     7    22 1   
    21     8     9 1   
    22     8    23 1   
    23     8    24 1   
    24     9    10 1   
    25     9    25 1   
    26     9    26 1   
    27    10    27 1   
    28    10    28 1   
    29    11    12 1   
    30    11    29 1   
    31    11    30 1   
    32    12    13 1   
    33    12    31 1   
    34    13    32 1   
    35    13    33 1   
@<TRIPOS>SUBSTRUCTURE
     1 46J         1 TEMP              0 ****  ****    0 ROOT
