@<TRIPOS>MOLECULE
46J
   34    35     1     0     0
SMALL
abcg2


@<TRIPOS>ATOM
      1 C1          -1.0910    -0.0660     0.2000 c6         1 46J      -0.139700
      2 C2          -2.0800    -0.9250     0.9830 c6         1 46J      -0.064400
      3 N1           1.2770    -0.1430    -0.4880 n          1 46J      -0.408800
      4 C3          -3.3610    -0.1410     1.2500 c6         1 46J      -0.078400
      5 C            0.1610    -0.8420    -0.1800 c          1 46J       0.606100
      6 C10          1.4840     1.2830    -0.2890 c6         1 46J       0.094500
      7 C9           2.5090     1.5260     0.8140 c6         1 46J      -0.098900
      8 C8           3.8150     0.7940     0.5210 c6         1 46J      -0.073400
      9 C7           3.5580    -0.6810     0.2280 c6         1 46J      -0.098900
     10 C6           2.5020    -0.8370    -0.8590 c6         1 46J       0.094500
     11 C5          -1.7600     0.4750    -1.0710 c6         1 46J       0.164800
     12 N           -2.9550     1.2180    -0.7250 n7         1 46J      -0.867400
     13 C4          -3.9400     0.3900    -0.0520 c6         1 46J       0.158800
     14 H1          -0.8330     0.7900     0.8300 hc         1 46J       0.069700
     15 H2          -2.3240    -1.8240     0.4130 hc         1 46J       0.055200
     16 H3          -1.6330    -1.2570     1.9230 hc         1 46J       0.055200
     17 H4          -4.0940    -0.7790     1.7470 hc         1 46J       0.046200
     18 H5          -3.1580     0.6960     1.9250 hc         1 46J       0.046200
     19 H6           1.8410     1.7140    -1.2310 h1         1 46J       0.055700
     20 H7           0.5510     1.7880    -0.0530 h1         1 46J       0.055700
     21 H8           2.6830     2.6010     0.9070 hc         1 46J       0.049450
     22 H9           2.0910     1.1840     1.7660 hc         1 46J       0.049450
     23 H10          4.3000     1.2550    -0.3460 hc         1 46J       0.041200
     24 H11          4.5060     0.9030     1.3590 hc         1 46J       0.041200
     25 H12          4.4780    -1.1770    -0.0890 hc         1 46J       0.049450
     26 H13          3.2160    -1.1900     1.1340 hc         1 46J       0.049450
     27 H14          2.2820    -1.8830    -1.0490 h1         1 46J       0.055700
     28 H15          2.8670    -0.4030    -1.7960 h1         1 46J       0.055700
     29 H16         -1.0800     1.1410    -1.6080 h1         1 46J       0.036200
     30 H17         -1.9630    -0.3760    -1.7430 h1         1 46J       0.036200
     31 H18         -3.3560     1.6090    -1.5670 hn         1 46J       0.413000
     32 H20         -4.2620    -0.4670    -0.6680 h1         1 46J       0.030700
     33 H21         -4.8300     0.9920     0.1430 h1         1 46J       0.030700
     34 O            0.1290    -2.0660    -0.2550 o          1 46J      -0.610100
@<TRIPOS>BOND
     1     1     2 1   
     2     1     5 1   
     3     1    11 1   
     4     1    14 1   
     5     2     4 1   
     6     2    15 1   
     7     2    16 1   
     8     3     5 1   
     9     3     6 1   
    10     3    10 1   
    11     4    13 1   
    12     4    17 1   
    13     4    18 1   
    14     5    34 2   
    15     6     7 1   
    16     6    19 1   
    17     6    20 1   
    18     7     8 1   
    19     7    21 1   
    20     7    22 1   
    21     8     9 1   
    22     8    23 1   
    23     8    24 1   
    24     9    10 1   
    25     9    25 1   
    26     9    26 1   
    27    10    27 1   
    28    10    28 1   
    29    11    12 1   
    30    11    29 1   
    31    11    30 1   
    32    12    13 1   
    33    12    31 1   
    34    13    32 1   
    35    13    33 1   
@<TRIPOS>SUBSTRUCTURE
     1 46J         1 TEMP              0 ****  ****    0 ROOT
