@<TRIPOS>MOLECULE
46K
   42    45     1     0     0
SMALL
abcg2


@<TRIPOS>ATOM
      1 C1          -6.2900    -0.2230     3.0210 c3         1 46K      -0.182100
      2 N1          -5.7470    -0.7640     0.7360 ns         1 46K      -0.594300
      3 O1          -5.5630     1.3900     1.3890 o          1 46K      -0.551100
      4 S1          -5.2490    -0.5340    -0.8480 sy         1 46K       1.191300
      5 C2          -5.8360     0.2460     1.6690 c          1 46K       0.635100
      6 N2           0.3600     1.2770    -0.3960 nu         1 46K      -0.806000
      7 O2          -6.0390     0.5210    -1.4450 o          1 46K      -0.528500
      8 S2           3.4620    -2.3750     0.2170 ss         1 46K      -0.012200
      9 C3          -3.5820     0.0030    -0.7140 ca         1 46K      -0.334500
     10 N3           4.3770     2.6230    -0.0500 ns         1 46K      -0.389100
     11 O3          -5.2770    -1.8720    -1.4110 o          1 46K      -0.528500
     12 C4          -3.2670     1.3510    -0.8190 ca         1 46K       0.035500
     13 N4           6.0160    -2.5800     0.5130 nc         1 46K      -0.513100
     14 O4           2.2360     3.4400    -0.3440 o          1 46K      -0.576000
     15 C5          -1.9500     1.7480    -0.7130 ca         1 46K      -0.185000
     16 C6          -0.9370     0.8090    -0.4970 ca         1 46K       0.357000
     17 C7           1.4730     0.5480    -0.2190 c2         1 46K       0.149000
     18 C8           2.7230     1.0750    -0.1200 cc         1 46K      -0.275400
     19 C9           3.0220     2.5110    -0.1910 c          1 46K       0.580200
     20 C10          4.9780     1.3850     0.1070 ca         1 46K       0.064600
     21 C11          6.3290     1.0990     0.2770 ca         1 46K      -0.137000
     22 C12          6.7160    -0.2220     0.4160 ca         1 46K      -0.026000
     23 C13          5.7540    -1.2340     0.3850 ca         1 46K       0.061400
     24 C14          4.9400    -3.2710     0.4470 cd         1 46K       0.394100
     25 C15          4.3920    -0.9190     0.2110 ca         1 46K      -0.137000
     26 C16          3.9850     0.4000     0.0690 ca         1 46K      -0.040800
     27 C17         -1.2690    -0.5450    -0.3950 ca         1 46K      -0.185000
     28 C18         -2.5860    -0.9440    -0.5060 ca         1 46K       0.035500
     29 HN3          4.8670     3.5040    -0.0530 hn         1 46K       0.342500
     30 H1          -6.2980     0.6080     3.7210 hc         1 46K       0.068700
     31 H1A         -7.2930    -0.6460     2.9560 hc         1 46K       0.068700
     32 H1B         -5.6300    -1.0030     3.4000 hc         1 46K       0.068700
     33 HN1         -5.9140    -1.7260     1.0050 hn         1 46K       0.345500
     34 H4          -4.0330     2.0940    -0.9870 ha         1 46K       0.143000
     35 H5          -1.7040     2.7990    -0.8010 ha         1 46K       0.127500
     36 H7           1.3410    -0.5240    -0.1580 h4         1 46K       0.202000
     37 H11          7.0640     1.8930     0.3000 ha         1 46K       0.126000
     38 H12          7.7580    -0.4780     0.5490 ha         1 46K       0.136000
     39 H14          4.9040    -4.3490     0.5230 h5         1 46K       0.060800
     40 H17         -0.5190    -1.3060    -0.2340 ha         1 46K       0.127500
     41 H18         -2.8190    -1.9970    -0.4290 ha         1 46K       0.143000
     42 HN2          0.4920     2.2810    -0.4590 hn         1 46K       0.537000
@<TRIPOS>BOND
     1     1     5 1   
     2     1    30 1   
     3     1    31 1   
     4     1    32 1   
     5     2     4 1   
     6     2     5 1   
     7     2    33 1   
     8     3     5 2   
     9     4     7 2   
    10     4     9 1   
    11     4    11 2   
    12     6    16 1   
    13     6    17 1   
    14     6    42 1   
    15     8    24 1   
    16     8    25 1   
    17     9    12 ar  
    18     9    28 ar  
    19    10    19 1   
    20    10    20 1   
    21    10    29 1   
    22    12    15 ar  
    23    12    34 1   
    24    13    23 1   
    25    13    24 2   
    26    14    19 2   
    27    15    16 ar  
    28    15    35 1   
    29    16    27 ar  
    30    17    18 2   
    31    17    36 1   
    32    18    19 1   
    33    18    26 1   
    34    20    21 ar  
    35    20    26 ar  
    36    21    22 ar  
    37    21    37 1   
    38    22    23 ar  
    39    22    38 1   
    40    23    25 ar  
    41    24    39 1   
    42    25    26 ar  
    43    27    28 ar  
    44    27    40 1   
    45    28    41 1   
@<TRIPOS>SUBSTRUCTURE
     1 46K         1 TEMP              0 ****  ****    0 ROOT
