@<TRIPOS>MOLECULE
46K
   42    45     1     0     0
SMALL
No Charge or Current Charge


@<TRIPOS>ATOM
      1 C1          -6.1370    -0.5320     3.1650 c3         1 46K      -0.182100
      2 N1          -5.7940    -0.6760     0.7730 ns         1 46K      -0.594300
      3 O1          -5.4310     1.3160     1.8000 o          1 46K      -0.551100
      4 S1          -5.4260    -0.2910    -0.8110 sy         1 46K       1.191300
      5 C2          -5.7530     0.1410     1.8560 c          1 46K       0.635100
      6 N2           0.4000     1.1780    -0.7010 nu         1 46K      -0.806000
      7 O2          -6.2080     0.9060    -1.1430 o          1 46K      -0.528500
      8 S2           3.3970    -2.3340     0.5050 ss         1 46K      -0.012200
      9 C3          -3.6810     0.1450    -0.7850 ca         1 46K      -0.334500
     10 N3           4.3870     2.5780    -0.3210 ns         1 46K      -0.389100
     11 O3          -5.5900    -1.5450    -1.5540 o          1 46K      -0.528500
     12 C4          -3.2870     1.4920    -0.6600 ca         1 46K       0.035500
     13 N4           6.0450    -2.5370     0.9860 nc         1 46K      -0.513100
     14 O4           2.2680     3.3690    -0.8230 o          1 46K      -0.576000
     15 C5          -1.9220     1.8210    -0.6340 ca         1 46K      -0.185000
     16 C6          -0.9460     0.8180    -0.7270 ca         1 46K       0.357000
     17 C7           1.5420     0.4530    -0.3620 c2         1 46K       0.149000
     18 C8           2.7680     1.0290    -0.2770 cc         1 46K      -0.275400
     19 C9           3.0390     2.4690    -0.5210 c          1 46K       0.580200
     20 C10          5.0220     1.3880     0.0240 ca         1 46K       0.064600
     21 C11          6.3710     1.1330     0.2990 ca         1 46K      -0.137000
     22 C12          6.7340    -0.1940     0.6270 ca         1 46K      -0.026000
     23 C13          5.7510    -1.2130     0.6700 ca         1 46K       0.061400
     24 C14          4.8860    -3.2160     0.9300 cd         1 46K       0.394100
     25 C15          4.4200    -0.9140     0.3890 ca         1 46K      -0.137000
     26 C16          4.0490     0.4010     0.0630 ca         1 46K      -0.040800
     27 C17         -1.3410    -0.5240    -0.8540 ca         1 46K      -0.185000
     28 C18         -2.7030    -0.8650    -0.8810 ca         1 46K       0.035500
     29 HN3          4.8750     3.4600    -0.4140 hn         1 46K       0.342500
     30 H1          -6.0920     0.1530     4.0190 hc         1 46K       0.068700
     31 H1A         -7.1300    -0.9820     3.0570 hc         1 46K       0.068700
     32 H1B         -5.4980    -1.4090     3.3160 hc         1 46K       0.068700
     33 HN1         -6.0470    -1.6430     0.8770 hn         1 46K       0.345500
     34 H4          -4.0290     2.2860    -0.5780 ha         1 46K       0.143000
     35 H5          -1.6260     2.8610    -0.5360 ha         1 46K       0.127500
     36 H7           1.4050    -0.6110    -0.1600 h4         1 46K       0.202000
     37 H11          7.1130     1.9260     0.2620 ha         1 46K       0.126000
     38 H12          7.7710    -0.4340     0.8470 ha         1 46K       0.136000
     39 H14          4.8080    -4.2770     1.1310 h5         1 46K       0.060800
     40 H17         -0.5980    -1.3100    -0.9410 ha         1 46K       0.127500
     41 H18         -2.9910    -1.9120    -0.9790 ha         1 46K       0.143000
     42 HN2          0.5670     2.1840    -0.8090 hn         1 46K       0.537000
@<TRIPOS>BOND
     1     1     5 1   
     2     1    30 1   
     3     1    31 1   
     4     1    32 1   
     5     2     4 1   
     6     2     5 1   
     7     2    33 1   
     8     3     5 2   
     9     4     7 2   
    10     4     9 1   
    11     4    11 2   
    12     6    16 1   
    13     6    17 1   
    14     6    42 1   
    15     8    24 1   
    16     8    25 1   
    17     9    12 ar  
    18     9    28 ar  
    19    10    19 1   
    20    10    20 1   
    21    10    29 1   
    22    12    15 ar  
    23    12    34 1   
    24    13    23 1   
    25    13    24 2   
    26    14    19 2   
    27    15    16 ar  
    28    15    35 1   
    29    16    27 ar  
    30    17    18 2   
    31    17    36 1   
    32    18    19 1   
    33    18    26 1   
    34    20    21 ar  
    35    20    26 ar  
    36    21    22 ar  
    37    21    37 1   
    38    22    23 ar  
    39    22    38 1   
    40    23    25 ar  
    41    24    39 1   
    42    25    26 ar  
    43    27    28 ar  
    44    27    40 1   
    45    28    41 1   
@<TRIPOS>SUBSTRUCTURE
     1 46K         1 TEMP              0 ****  ****    0 ROOT
