@<TRIPOS>MOLECULE
46L
   21    21     1     0     0
SMALL
abcg2


@<TRIPOS>ATOM
      1 C4           0.6670     1.2760    -0.0930 ca         1 46L      -0.026000
      2 C5           1.3800     0.0780    -0.0020 ca         1 46L      -0.218600
      3 C6           2.8920     0.0420     0.0380 c          1 46L       0.720600
      4 N1          -0.7130    -1.1090     0.0270 nb         1 46L      -0.778000
      5 C7           0.6130    -1.0750     0.0550 ca         1 46L       0.382900
      6 O1           3.4790     1.1410    -0.0240 o          1 46L      -0.726000
      7 O            3.4260    -1.0830     0.1300 o          1 46L      -0.726000
      8 C3          -0.7090     1.2780    -0.1250 ca         1 46L      -0.258000
      9 C2          -1.3870     0.0400    -0.0700 ca         1 46L       0.577900
     10 N           -2.7440    -0.0400    -0.1180 nh         1 46L      -0.809300
     11 C1          -3.5350     1.1660    -0.0410 c3         1 46L       0.237100
     12 C           -3.3890    -1.3170     0.0970 c3         1 46L       0.237100
     13 H1           1.2020     2.2160    -0.1380 ha         1 46L       0.126000
     14 H2           1.1050    -2.0400     0.1330 h4         1 46L       0.028100
     15 H4          -1.2470     2.2120    -0.1920 ha         1 46L       0.094000
     16 H5          -3.3180     1.8450    -0.8670 h1         1 46L       0.023033
     17 H6          -4.5890     0.9080    -0.1040 h1         1 46L       0.023033
     18 H7          -3.3810     1.7150     0.8940 h1         1 46L       0.023033
     19 H8          -3.2870    -1.6750     1.1260 h1         1 46L       0.023033
     20 H9          -4.4490    -1.2160    -0.1240 h1         1 46L       0.023033
     21 H10         -2.9780    -2.0810    -0.5610 h1         1 46L       0.023033
@<TRIPOS>BOND
     1     1     2 ar  
     2     1     8 ar  
     3     1    13 1   
     4     2     3 1   
     5     2     5 ar  
     6     3     6 1   
     7     3     7 1   
     8     4     5 ar  
     9     4     9 ar  
    10     5    14 1   
    11     8     9 ar  
    12     8    15 1   
    13     9    10 1   
    14    10    11 1   
    15    10    12 1   
    16    11    16 1   
    17    11    17 1   
    18    11    18 1   
    19    12    19 1   
    20    12    20 1   
    21    12    21 1   
@<TRIPOS>SUBSTRUCTURE
     1 46L         1 TEMP              0 ****  ****    0 ROOT
