@<TRIPOS>MOLECULE
46L
   21    21     1     0     0
SMALL
No Charge or Current Charge


@<TRIPOS>ATOM
      1 C4           0.7300     1.3130    -0.1690 ca         1 46L      -0.026000
      2 C5           1.4190     0.1000     0.0240 ca         1 46L      -0.218600
      3 C6           2.9190     0.0340     0.0500 c          1 46L       0.720600
      4 N1          -0.6900    -1.0930     0.1840 nb         1 46L      -0.778000
      5 C7           0.6640    -1.0710     0.1940 ca         1 46L       0.382900
      6 O1           3.5490     1.0700    -0.1010 o          1 46L      -0.726000
      7 O            3.4530    -1.0510     0.2200 o          1 46L      -0.726000
      8 C3          -0.6720     1.2870    -0.1790 ca         1 46L      -0.258000
      9 C2          -1.3460     0.0650     0.0020 ca         1 46L       0.577900
     10 N           -2.7530    -0.0340     0.0040 nh         1 46L      -0.809300
     11 C1          -3.6040     1.1740     0.0690 c3         1 46L       0.237100
     12 C           -3.4470    -1.3460    -0.0450 c3         1 46L       0.237100
     13 H1           1.2630     2.2520    -0.3080 ha         1 46L       0.126000
     14 H2           1.1440    -2.0370     0.3460 h4         1 46L       0.028100
     15 H4          -1.2160     2.2120    -0.3330 ha         1 46L       0.094000
     16 H5          -3.5820     1.7100    -0.8890 h1         1 46L       0.023033
     17 H6          -4.6470     0.9140     0.2940 h1         1 46L       0.023033
     18 H7          -3.2540     1.8470     0.8630 h1         1 46L       0.023033
     19 H8          -3.3190    -1.8850     0.9030 h1         1 46L       0.023033
     20 H9          -4.5230    -1.2180    -0.2220 h1         1 46L       0.023033
     21 H10         -3.0510    -1.9620    -0.8640 h1         1 46L       0.023033
@<TRIPOS>BOND
     1     1     2 ar  
     2     1     8 ar  
     3     1    13 1   
     4     2     3 1   
     5     2     5 ar  
     6     3     6 1   
     7     3     7 1   
     8     4     5 ar  
     9     4     9 ar  
    10     5    14 1   
    11     8     9 ar  
    12     8    15 1   
    13     9    10 1   
    14    10    11 1   
    15    10    12 1   
    16    11    16 1   
    17    11    17 1   
    18    11    18 1   
    19    12    19 1   
    20    12    20 1   
    21    12    21 1   
@<TRIPOS>SUBSTRUCTURE
     1 46L         1 TEMP              0 ****  ****    0 ROOT
