@<TRIPOS>MOLECULE
46M
   30    31     1     0     0
SMALL
abcg2


@<TRIPOS>ATOM
      1 O3          -0.8140   -54.8830    48.8370 oh         1 46M      -0.657000
      2 C3          -1.3180   -55.4890    47.6770 c6         1 46M       0.191300
      3 C4          -0.3520   -56.5550    47.2030 c6         1 46M       0.156300
      4 O4           0.8940   -55.9920    46.8760 os         1 46M      -0.453000
      5 C7           1.8220   -56.9490    46.4180 c6         1 46M       0.227000
      6 C9           2.2410   -57.9590    47.5440 c          1 46M       0.695000
      7 O7           2.2530   -57.5060    48.7020 o          1 46M      -0.701000
      8 O8           2.5970   -59.0850    47.1590 o          1 46M      -0.701000
      9 C8           3.0560   -56.1820    45.9770 c3         1 46M      -0.057100
     10 O6           1.3190   -57.5970    45.2730 os         1 46M      -0.467000
     11 C6           0.0790   -58.2390    45.4620 c6         1 46M       0.183600
     12 C5          -0.9270   -57.2140    45.9530 c6         1 46M       0.085300
     13 O5          -2.1630   -57.8280    46.2200 os         1 46M      -0.429000
     14 C1          -3.1220   -56.8910    46.6180 c6         1 46M       0.366300
     15 O1          -4.2710   -57.6400    46.8510 oh         1 46M      -0.712000
     16 C2          -2.6870   -56.1440    47.8900 c6         1 46M       0.078300
     17 O2          -2.6130   -57.0120    48.9890 oh         1 46M      -0.675000
     18 HO3         -1.4030   -54.1640    49.0890 ho         1 46M       0.476000
     19 H3          -1.4380   -54.7510    46.8670 h1         1 46M       0.018700
     20 H4          -0.2390   -57.3160    47.9870 h1         1 46M       0.110700
     21 H81          3.8090   -56.8660    45.5880 hc         1 46M       0.034700
     22 H82          2.8110   -55.4590    45.1970 hc         1 46M       0.034700
     23 H83          3.4900   -55.6470    46.8200 hc         1 46M       0.034700
     24 H61         -0.2190   -58.6570    44.4980 h1         1 46M       0.057200
     25 H62          0.1490   -59.0660    46.1810 h1         1 46M       0.057200
     26 H5          -1.0500   -56.4390    45.1780 h1         1 46M       0.029700
     27 H1          -3.2800   -56.1490    45.8160 h2         1 46M       0.007700
     28 HO1         -5.0430   -57.0790    46.7260 ho         1 46M       0.506000
     29 H2          -3.4310   -55.3470    48.0620 h1         1 46M       0.001700
     30 HO2         -3.4240   -57.5330    49.0060 ho         1 46M       0.502000
@<TRIPOS>BOND
     1     1     2 1   
     2     1    18 1   
     3     2     3 1   
     4     2    16 1   
     5     2    19 1   
     6     3     4 1   
     7     3    12 1   
     8     3    20 1   
     9     4     5 1   
    10     5     6 1   
    11     5     9 1   
    12     5    10 1   
    13     6     7 1   
    14     6     8 1   
    15     9    21 1   
    16     9    22 1   
    17     9    23 1   
    18    10    11 1   
    19    11    12 1   
    20    11    24 1   
    21    11    25 1   
    22    12    13 1   
    23    12    26 1   
    24    13    14 1   
    25    14    15 1   
    26    14    16 1   
    27    14    27 1   
    28    15    28 1   
    29    16    17 1   
    30    16    29 1   
    31    17    30 1   
@<TRIPOS>SUBSTRUCTURE
     1 46M         1 TEMP              0 ****  ****    0 ROOT
