@<TRIPOS>MOLECULE
46M
   30    31     1     0     0
SMALL
No Charge or Current Charge


@<TRIPOS>ATOM
      1 O3          -0.9380   -54.6640    48.7600 oh         1 46M      -0.657000
      2 C3          -1.3760   -55.3580    47.5800 c6         1 46M       0.191300
      3 C4          -0.3610   -56.4640    47.1400 c6         1 46M       0.156300
      4 O4           0.9480   -55.9360    46.7990 os         1 46M      -0.453000
      5 C7           1.9210   -56.9590    46.4250 c6         1 46M       0.227000
      6 C9           2.4110   -57.9080    47.6320 c          1 46M       0.695000
      7 O7           2.1740   -57.5380    48.7780 o          1 46M      -0.701000
      8 O8           2.5650   -59.1010    47.3930 o          1 46M      -0.701000
      9 C8           3.1650   -56.1930    45.9050 c3         1 46M      -0.057100
     10 O6           1.3770   -57.6690    45.2700 os         1 46M      -0.467000
     11 C6           0.0950   -58.3060    45.5020 c6         1 46M       0.183600
     12 C5          -0.9400   -57.2400    45.9300 c6         1 46M       0.085300
     13 O5          -2.2170   -57.8210    46.2830 os         1 46M      -0.429000
     14 C1          -3.2100   -56.8320    46.5970 c6         1 46M       0.366300
     15 O1          -4.4100   -57.5450    46.8760 oh         1 46M      -0.712000
     16 C2          -2.7720   -55.9980    47.8550 c6         1 46M       0.078300
     17 O2          -2.7060   -56.8320    49.0360 oh         1 46M      -0.675000
     18 HO3         -1.3100   -55.2020    49.4980 ho         1 46M       0.476000
     19 H3          -1.4810   -54.6420    46.7520 h1         1 46M       0.018700
     20 H4          -0.2500   -57.1680    47.9770 h1         1 46M       0.110700
     21 H81          3.9340   -56.8880    45.5480 hc         1 46M       0.034700
     22 H82          2.9060   -55.5240    45.0760 hc         1 46M       0.034700
     23 H83          3.6130   -55.5850    46.7000 hc         1 46M       0.034700
     24 H61         -0.2350   -58.7950    44.5740 h1         1 46M       0.057200
     25 H62          0.1940   -59.0760    46.2790 h1         1 46M       0.057200
     26 H5          -1.0930   -56.5460    45.0900 h1         1 46M       0.029700
     27 H1          -3.3570   -56.1690    45.7310 h2         1 46M       0.007700
     28 HO1         -5.1330   -56.8790    46.8340 ho         1 46M       0.506000
     29 H2          -3.5040   -55.1930    48.0120 h1         1 46M       0.001700
     30 HO2         -3.2850   -57.6060    48.8310 ho         1 46M       0.502000
@<TRIPOS>BOND
     1     1     2 1   
     2     1    18 1   
     3     2     3 1   
     4     2    16 1   
     5     2    19 1   
     6     3     4 1   
     7     3    12 1   
     8     3    20 1   
     9     4     5 1   
    10     5     6 1   
    11     5     9 1   
    12     5    10 1   
    13     6     7 1   
    14     6     8 1   
    15     9    21 1   
    16     9    22 1   
    17     9    23 1   
    18    10    11 1   
    19    11    12 1   
    20    11    24 1   
    21    11    25 1   
    22    12    13 1   
    23    12    26 1   
    24    13    14 1   
    25    14    15 1   
    26    14    16 1   
    27    14    27 1   
    28    15    28 1   
    29    16    17 1   
    30    16    29 1   
    31    17    30 1   
@<TRIPOS>SUBSTRUCTURE
     1 46M         1 TEMP              0 ****  ****    0 ROOT
