@<TRIPOS>MOLECULE
46O
   30    32     1     0     0
SMALL
No Charge or Current Charge


@<TRIPOS>ATOM
      1 C2          -1.7760     0.8000    -0.0900 ca         1 46O       0.058100
      2 C4          -0.2290    -1.0620     0.2320 ca         1 46O      -0.094000
      3 C5           0.8700    -0.1830     0.1260 ca         1 46O      -0.105300
      4 C6           0.6240     1.1950    -0.0770 ca         1 46O      -0.110000
      5 C11          2.9640    -0.6090    -1.1590 c5         1 46O      -0.091400
      6 C10          4.4470    -0.4440    -0.7550 c5         1 46O      -0.086400
      7 C9           4.2790     0.5800     0.3880 c5         1 46O       0.163800
      8 N            3.1520     0.0350     1.1840 n7         1 46O      -0.883400
      9 C8           2.2940    -0.7350     0.2430 c5         1 46O       0.224800
     10 C3          -1.5440    -0.5780     0.1370 ca         1 46O       0.055100
     11 O           -2.6000    -1.4590     0.2640 os         1 46O      -0.329100
     12 C7          -0.6900     1.6830    -0.1840 ca         1 46O      -0.107000
     13 O1          -3.0620     1.2890    -0.2190 os         1 46O      -0.329100
     14 C1          -4.1190     0.3280    -0.4370 c6         1 46O       0.117600
     15 C           -3.9130    -0.8960     0.4820 c6         1 46O       0.117600
     16 H1          -0.0650    -2.1240     0.3980 ha         1 46O       0.129000
     17 H2           1.4550     1.8930    -0.1610 ha         1 46O       0.116000
     18 H3           2.6140     0.2650    -1.7220 hc         1 46O       0.049700
     19 H4           2.7900    -1.4910    -1.7850 hc         1 46O       0.049700
     20 H5           4.8840    -1.3850    -0.3990 hc         1 46O       0.051700
     21 H6           5.0730    -0.0670    -1.5710 hc         1 46O       0.051700
     22 H7           5.1890     0.6930     0.9930 h1         1 46O       0.033700
     23 H8           4.0170     1.5680    -0.0180 h1         1 46O       0.033700
     24 H9           2.6090     0.8080     1.5880 hn         1 46O       0.424000
     25 H11          2.2740    -1.7900     0.5540 h1         1 46O       0.067700
     26 H12         -0.8670     2.7430    -0.3510 ha         1 46O       0.127000
     27 H13         -5.0900     0.8030    -0.2410 h1         1 46O       0.067200
     28 H14         -4.0980     0.0050    -1.4870 h1         1 46O       0.067200
     29 H15         -4.6760    -1.6630     0.2850 h1         1 46O       0.067200
     30 H16         -3.9990    -0.5840     1.5320 h1         1 46O       0.067200
@<TRIPOS>BOND
     1     1    10 ar  
     2     1    12 ar  
     3     1    13 1   
     4     2     3 ar  
     5     2    10 ar  
     6     2    16 1   
     7     3     4 ar  
     8     3     9 1   
     9     4    12 ar  
    10     4    17 1   
    11     5     6 1   
    12     5     9 1   
    13     5    18 1   
    14     5    19 1   
    15     6     7 1   
    16     6    20 1   
    17     6    21 1   
    18     7     8 1   
    19     7    22 1   
    20     7    23 1   
    21     8     9 1   
    22     8    24 1   
    23     9    25 1   
    24    10    11 1   
    25    11    15 1   
    26    12    26 1   
    27    13    14 1   
    28    14    15 1   
    29    14    27 1   
    30    14    28 1   
    31    15    29 1   
    32    15    30 1   
@<TRIPOS>SUBSTRUCTURE
     1 46O         1 TEMP              0 ****  ****    0 ROOT
