@<TRIPOS>MOLECULE
46O
   30    32     1     0     0
SMALL
bcc


@<TRIPOS>ATOM
      1 C2          -1.7830     0.7830    -0.1360 ca         1 46O       0.058100
      2 C4          -0.2610    -1.0520     0.2130 ca         1 46O      -0.112000
      3 C5           0.8330    -0.2140     0.0440 ca         1 46O      -0.105300
      4 C6           0.5990     1.1410    -0.1950 ca         1 46O      -0.128000
      5 C11          3.0240    -0.6310    -1.1830 c5         1 46O      -0.091400
      6 C10          4.4450    -0.3150    -0.7310 c5         1 46O      -0.086400
      7 C9           4.1930     0.5750     0.4770 c5         1 46O       0.163800
      8 N            3.0730    -0.0850     1.1360 n7         1 46O      -0.828200
      9 C8           2.2360    -0.7630     0.1350 c5         1 46O       0.224800
     10 C3          -1.5620    -0.5700     0.1270 ca         1 46O       0.055100
     11 O           -2.5870    -1.4380     0.3130 os         1 46O      -0.305900
     12 C7          -0.6920     1.6310    -0.2900 ca         1 46O      -0.125000
     13 O1          -3.0310     1.3010    -0.2450 os         1 46O      -0.305900
     14 C1          -4.0510     0.3280    -0.4000 c6         1 46O       0.094400
     15 C           -3.8350    -0.8120     0.5660 c6         1 46O       0.094400
     16 H1          -0.1120    -2.1060     0.4190 ha         1 46O       0.147000
     17 H2           1.4280     1.8270    -0.3260 ha         1 46O       0.134000
     18 H3           2.6330     0.2030    -1.7700 hc         1 46O       0.049700
     19 H4           2.9460    -1.5270    -1.7990 hc         1 46O       0.049700
     20 H5           4.9700    -1.2250    -0.4290 hc         1 46O       0.051700
     21 H6           5.0400     0.1760    -1.5010 hc         1 46O       0.051700
     22 H7           5.0580     0.6380     1.1430 h1         1 46O       0.033700
     23 H8           3.9630     1.5960     0.1430 h1         1 46O       0.033700
     24 H9           2.5400     0.5420     1.7220 hn         1 46O       0.368800
     25 H11          2.1520    -1.8250     0.3960 h1         1 46O       0.067700
     26 H12         -0.8680     2.6820    -0.4860 ha         1 46O       0.145000
     27 H13         -5.0020     0.8210    -0.2030 h1         1 46O       0.067200
     28 H14         -4.0620    -0.0460    -1.4300 h1         1 46O       0.067200
     29 H15         -4.6080    -1.5690     0.4410 h1         1 46O       0.067200
     30 H16         -3.8720    -0.4480     1.5990 h1         1 46O       0.067200
@<TRIPOS>BOND
     1     1    10 ar  
     2     1    12 ar  
     3     1    13 1   
     4     2     3 ar  
     5     2    10 ar  
     6     2    16 1   
     7     3     4 ar  
     8     3     9 1   
     9     4    12 ar  
    10     4    17 1   
    11     5     6 1   
    12     5     9 1   
    13     5    18 1   
    14     5    19 1   
    15     6     7 1   
    16     6    20 1   
    17     6    21 1   
    18     7     8 1   
    19     7    22 1   
    20     7    23 1   
    21     8     9 1   
    22     8    24 1   
    23     9    25 1   
    24    10    11 1   
    25    11    15 1   
    26    12    26 1   
    27    13    14 1   
    28    14    15 1   
    29    14    27 1   
    30    14    28 1   
    31    15    29 1   
    32    15    30 1   
@<TRIPOS>SUBSTRUCTURE
     1 46O         1 TEMP              0 ****  ****    0 ROOT
