@<TRIPOS>MOLECULE
46P
   23    24     1     0     0
SMALL
No Charge or Current Charge


@<TRIPOS>ATOM
      1 C4           1.2480    -0.2030     0.0050 cc         1 46P       0.490000
      2 C5           3.3150    -0.8590    -0.0130 cd         1 46P       0.231900
      3 C6           3.3700     0.5060    -0.0290 cc         1 46P      -0.230000
      4 N2           2.0090    -1.2860     0.0080 nd         1 46P      -0.658000
      5 N3           2.0600     0.9380    -0.0180 na         1 46P      -0.156500
      6 C2          -2.5780     0.1840     0.0560 cc         1 46P       0.715300
      7 N           -2.3600    -1.0960     0.0610 nd         1 46P      -0.738000
      8 S           -1.2170     1.2510     0.0190 ss         1 46P      -0.128400
      9 C3          -0.2040    -0.1800     0.0230 cc         1 46P      -0.296500
     10 C1          -0.9900    -1.3290     0.0460 cd         1 46P       0.390300
     11 C           -0.5550    -2.7730     0.0550 c3         1 46P      -0.126400
     12 H1           4.1430    -1.5570    -0.0150 h4         1 46P       0.038100
     13 H2           4.2210     1.1750    -0.0470 h4         1 46P       0.155000
     14 H3          -4.5150    -0.1220    -0.1940 hn         1 46P       0.483500
     15 H4          -4.0260     1.5240    -0.3020 hn         1 46P       0.483500
     16 H5           1.0980     2.5970     0.8750 h1         1 46P       0.054700
     17 H6           2.5710     2.9880    -0.0470 h1         1 46P       0.054700
     18 H7           1.0760     2.5770    -0.9240 h1         1 46P       0.054700
     19 H8           0.0530    -2.9950     0.9380 hc         1 46P       0.057700
     20 H9          -1.4150    -3.4530     0.0720 hc         1 46P       0.057700
     21 H10          0.0310    -3.0120    -0.8400 hc         1 46P       0.057700
     22 C7           1.6720     2.3590    -0.0290 c3         1 46P       0.055900
     23 N1          -3.8460     0.5950     0.0580 nv         1 46P      -1.045900
@<TRIPOS>BOND
     1     1     4 2   
     2     1     5 1   
     3     1     9 1   
     4     2     3 2   
     5     2     4 1   
     6     2    12 1   
     7     3     5 1   
     8     3    13 1   
     9     5    22 1   
    10     6     7 2   
    11     6     8 1   
    12     6    23 1   
    13     7    10 1   
    14     8     9 1   
    15     9    10 2   
    16    10    11 1   
    17    11    19 1   
    18    11    20 1   
    19    11    21 1   
    20    14    23 1   
    21    15    23 1   
    22    16    22 1   
    23    17    22 1   
    24    18    22 1   
@<TRIPOS>SUBSTRUCTURE
     1 46P         1 TEMP              0 ****  ****    0 ROOT
