@<TRIPOS>MOLECULE
46P
   23    24     1     0     0
SMALL
abcg2


@<TRIPOS>ATOM
      1 C4           1.2760    -0.1890     0.3670 cc         1 46P       0.490000
      2 C5           3.3080    -0.7130     0.7660 cd         1 46P       0.231900
      3 C6           3.3400     0.5260     0.1930 cc         1 46P      -0.230000
      4 N2           2.0230    -1.1450     0.8780 nd         1 46P      -0.658000
      5 N3           2.0390     0.8490    -0.0660 na         1 46P      -0.156500
      6 C2          -2.5810     0.1250     0.3920 cc         1 46P       0.715300
      7 N           -2.3080    -1.0670    -0.0450 nd         1 46P      -0.738000
      8 S           -1.1870     1.0950     0.7640 ss         1 46P      -0.128400
      9 C3          -0.1700    -0.2360     0.2610 cc         1 46P      -0.296500
     10 C1          -0.9590    -1.2820    -0.1180 cd         1 46P       0.390300
     11 C           -0.4800    -2.6080    -0.6020 c3         1 46P      -0.126400
     12 H1           4.1430    -1.3080     1.1050 h4         1 46P       0.038100
     13 H2           4.1530     1.1900    -0.0510 h4         1 46P       0.155000
     14 H3          -4.5790     0.0710     0.1800 hn         1 46P       0.483500
     15 H4          -3.9790     1.5880     0.6480 hn         1 46P       0.483500
     16 H5           1.2100     2.7830     0.0210 h1         1 46P       0.054700
     17 H6           2.4320     2.5200    -1.2250 h1         1 46P       0.054700
     18 H7           0.8150     1.8490    -1.4340 h1         1 46P       0.054700
     19 H8          -0.6440    -3.3760     0.1560 hc         1 46P       0.057700
     20 H9          -1.0360    -2.9070    -1.4910 hc         1 46P       0.057700
     21 H10          0.5810    -2.5970    -0.8370 hc         1 46P       0.057700
     22 C7           1.5920     2.0670    -0.7060 c3         1 46P       0.055900
     23 N1          -3.8280     0.5940     0.6010 nv         1 46P      -1.045900
@<TRIPOS>BOND
     1     1     4 2   
     2     1     5 1   
     3     1     9 1   
     4     2     3 2   
     5     2     4 1   
     6     2    12 1   
     7     3     5 1   
     8     3    13 1   
     9     5    22 1   
    10     6     7 2   
    11     6     8 1   
    12     6    23 1   
    13     7    10 1   
    14     8     9 1   
    15     9    10 2   
    16    10    11 1   
    17    11    19 1   
    18    11    20 1   
    19    11    21 1   
    20    14    23 1   
    21    15    23 1   
    22    16    22 1   
    23    17    22 1   
    24    18    22 1   
@<TRIPOS>SUBSTRUCTURE
     1 46P         1 TEMP              0 ****  ****    0 ROOT
