@<TRIPOS>MOLECULE
46Q
   32    32     1     0     0
SMALL
bcc


@<TRIPOS>ATOM
      1 C4          -1.6950     1.2210     0.4640 c3         1 46Q       0.154800
      2 C5           1.1600     0.9950     0.5670 c6         1 46Q       0.138300
      3 C6           2.4760     1.1590    -0.1720 c6         1 46Q       0.129400
      4 N1           0.3620    -0.0350    -0.0720 n3         1 46Q      -0.723600
      5 C7           2.4330    -1.0620    -0.8280 c6         1 46Q       0.129400
      6 C8           1.1260    -1.2710    -0.0870 c6         1 46Q       0.138300
      7 N           -1.5850     1.9800    -0.7690 n8         1 46Q      -0.872800
      8 C2          -1.0310    -0.1630     0.3950 c3         1 46Q       0.219200
      9 C3          -1.1310    -0.7760     1.7990 c3         1 46Q      -0.123100
     10 C1          -1.7860    -1.0550    -0.6180 c3         1 46Q      -0.077400
     11 C           -3.3050    -1.0860    -0.4900 c3         1 46Q      -0.089100
     12 O            3.2100    -0.0430    -0.2400 os         1 46Q      -0.406600
     13 H1          -1.2370     1.8030     1.2680 h1         1 46Q       0.027200
     14 H2          -2.7320     1.0640     0.7890 h1         1 46Q       0.027200
     15 H3           1.3640     0.7780     1.6300 h1         1 46Q       0.039450
     16 H4           0.6510     1.9560     0.5200 h1         1 46Q       0.039450
     17 H5           2.2680     1.5380    -1.1830 h1         1 46Q       0.048700
     18 H6           3.1010     1.8940     0.3400 h1         1 46Q       0.048700
     19 H8           3.0270    -1.9780    -0.8050 h1         1 46Q       0.048700
     20 H9           2.2190    -0.8240    -1.8800 h1         1 46Q       0.048700
     21 H10          1.3490    -1.6440     0.9270 h1         1 46Q       0.039450
     22 H11          0.5770    -2.0580    -0.6020 h1         1 46Q       0.039450
     23 H12         -2.0310     1.4740    -1.5250 hn         1 46Q       0.336300
     24 H13         -2.1120     2.8380    -0.6730 hn         1 46Q       0.336300
     25 H15         -2.1630    -0.7810     2.1520 hc         1 46Q       0.038367
     26 H16         -0.7780    -1.8090     1.8150 hc         1 46Q       0.038367
     27 H17         -0.5430    -0.2100     2.5240 hc         1 46Q       0.038367
     28 H18         -1.5120    -0.7440    -1.6300 hc         1 46Q       0.048200
     29 H19         -1.4300    -2.0830    -0.5200 hc         1 46Q       0.048200
     30 H20         -3.7180    -1.8270    -1.1750 hc         1 46Q       0.031033
     31 H21         -3.6290    -1.3600     0.5150 hc         1 46Q       0.031033
     32 H22         -3.7660    -0.1290    -0.7380 hc         1 46Q       0.031033
@<TRIPOS>BOND
     1     1     7 1   
     2     1     8 1   
     3     1    13 1   
     4     1    14 1   
     5     2     3 1   
     6     2     4 1   
     7     2    15 1   
     8     2    16 1   
     9     3    12 1   
    10     3    17 1   
    11     3    18 1   
    12     4     6 1   
    13     4     8 1   
    14     5     6 1   
    15     5    12 1   
    16     5    19 1   
    17     5    20 1   
    18     6    21 1   
    19     6    22 1   
    20     7    23 1   
    21     7    24 1   
    22     8     9 1   
    23     8    10 1   
    24     9    25 1   
    25     9    26 1   
    26     9    27 1   
    27    10    11 1   
    28    10    28 1   
    29    10    29 1   
    30    11    30 1   
    31    11    31 1   
    32    11    32 1   
@<TRIPOS>SUBSTRUCTURE
     1 46Q         1 TEMP              0 ****  ****    0 ROOT
