@<TRIPOS>MOLECULE
46Q
   32    32     1     0     0
SMALL
No Charge or Current Charge


@<TRIPOS>ATOM
      1 C4          -1.7580     1.3030     0.3980 c3         1 46Q       0.154800
      2 C5           1.2410     0.9920     0.6290 c6         1 46Q       0.138300
      3 C6           2.6510     1.1430    -0.0130 c6         1 46Q       0.152600
      4 N1           0.3840    -0.0090    -0.1040 n3         1 46Q      -0.723600
      5 C7           2.5490    -1.0850    -0.8810 c6         1 46Q       0.152600
      6 C8           1.1370    -1.3040    -0.2610 c6         1 46Q       0.138300
      7 N           -1.7650     2.0400    -0.8980 n8         1 46Q      -0.983200
      8 C2          -1.0540    -0.1190     0.3740 c3         1 46Q       0.219200
      9 C3          -1.1150    -0.6950     1.8210 c3         1 46Q      -0.123100
     10 C1          -1.8590    -1.0730    -0.5890 c3         1 46Q      -0.077400
     11 C           -3.3930    -1.1810    -0.3840 c3         1 46Q      -0.089100
     12 O            3.3080    -0.1400    -0.0960 os         1 46Q      -0.453000
     13 H1          -1.2820     1.9440     1.1510 h1         1 46Q       0.027200
     14 H2          -2.8000     1.1850     0.7230 h1         1 46Q       0.027200
     15 H3           1.3760     0.6940     1.6790 h1         1 46Q       0.039450
     16 H4           0.7790     1.9880     0.6330 h1         1 46Q       0.039450
     17 H5           2.5570     1.5610    -1.0260 h1         1 46Q       0.048700
     18 H6           3.2680     1.8270     0.5870 h1         1 46Q       0.048700
     19 H8           3.0920    -2.0400    -0.9150 h1         1 46Q       0.048700
     20 H9           2.4540    -0.7100    -1.9100 h1         1 46Q       0.048700
     21 H10          1.2600    -1.8020     0.7110 h1         1 46Q       0.039450
     22 H11          0.6060    -2.0020    -0.9200 h1         1 46Q       0.039450
     23 H12         -2.1900     1.4410    -1.6130 hn         1 46Q       0.391500
     24 H13         -2.4040     2.8390    -0.8280 hn         1 46Q       0.391500
     25 H15         -2.1450    -0.7140     2.1960 hc         1 46Q       0.038367
     26 H16         -0.7290    -1.7190     1.8630 hc         1 46Q       0.038367
     27 H17         -0.5370    -0.0830     2.5230 hc         1 46Q       0.038367
     28 H18         -1.6740    -0.7730    -1.6280 hc         1 46Q       0.048200
     29 H19         -1.4720    -2.0930    -0.4940 hc         1 46Q       0.048200
     30 H20         -3.8050    -1.9350    -1.0640 hc         1 46Q       0.031033
     31 H21         -3.6430    -1.4860     0.6380 hc         1 46Q       0.031033
     32 H22         -3.8980    -0.2340    -0.6040 hc         1 46Q       0.031033
@<TRIPOS>BOND
     1     1     7 1   
     2     1     8 1   
     3     1    13 1   
     4     1    14 1   
     5     2     3 1   
     6     2     4 1   
     7     2    15 1   
     8     2    16 1   
     9     3    12 1   
    10     3    17 1   
    11     3    18 1   
    12     4     6 1   
    13     4     8 1   
    14     5     6 1   
    15     5    12 1   
    16     5    19 1   
    17     5    20 1   
    18     6    21 1   
    19     6    22 1   
    20     7    23 1   
    21     7    24 1   
    22     8     9 1   
    23     8    10 1   
    24     9    25 1   
    25     9    26 1   
    26     9    27 1   
    27    10    11 1   
    28    10    28 1   
    29    10    29 1   
    30    11    30 1   
    31    11    31 1   
    32    11    32 1   
@<TRIPOS>SUBSTRUCTURE
     1 46Q         1 TEMP              0 ****  ****    0 ROOT
