@<TRIPOS>MOLECULE
46R
   18    18     1     0     0
SMALL
abcg2


@<TRIPOS>ATOM
      1 N1           2.2270     0.8340    -0.8200 nc         1 46R      -0.359300
      2 C2           3.2500    -0.6180     0.5560 cd         1 46R      -0.192000
      3 C3           2.0410    -0.1980    -0.0470 cd         1 46R       0.215500
      4 C5          -1.6390    -0.7450    -0.5540 c3         1 46R       0.036000
      5 C6          -2.4930     0.0700     0.3940 c3         1 46R       0.277000
      6 F2          -2.5380     1.3610     0.0360 f          1 46R      -0.112333
      7 F           -3.7520    -0.3820     0.4130 f          1 46R      -0.112333
      8 F1          -2.0340     0.0350     1.6500 f          1 46R      -0.112333
      9 N           -0.2870    -0.2670    -0.5890 ns         1 46R      -0.494900
     10 C4           0.6990    -0.8130     0.1430 c          1 46R       0.534600
     11 O            0.5620    -1.7500     0.9050 o          1 46R      -0.563100
     12 O1           3.5410     1.1230    -0.7550 os         1 46R      -0.050700
     13 C1           4.1500     0.2590     0.0620 cc         1 46R       0.156900
     14 H1           3.4120    -1.4370     1.2350 ha         1 46R       0.175000
     15 H2          -1.6630    -1.7900    -0.2460 h1         1 46R       0.093700
     16 H3          -2.0710    -0.6840    -1.5540 h1         1 46R       0.093700
     17 H4          -0.0690     0.4980    -1.2100 hn         1 46R       0.348500
     18 H5           5.2120     0.3870     0.1980 h4         1 46R       0.065100
@<TRIPOS>BOND
     1     1     3 2   
     2     1    12 1   
     3     2     3 1   
     4     2    13 2   
     5     2    14 1   
     6     3    10 1   
     7     4     5 1   
     8     4     9 1   
     9     4    15 1   
    10     4    16 1   
    11     5     6 1   
    12     5     7 1   
    13     5     8 1   
    14     9    10 1   
    15     9    17 1   
    16    10    11 2   
    17    12    13 1   
    18    13    18 1   
@<TRIPOS>SUBSTRUCTURE
     1 46R         1 TEMP              0 ****  ****    0 ROOT
