@<TRIPOS>MOLECULE
46R
   18    18     1     0     0
SMALL
No Charge or Current Charge


@<TRIPOS>ATOM
      1 N1           2.2760     0.7850    -0.9750 nc         1 46R      -0.359300
      2 C2           3.2620    -0.5280     0.5820 cd         1 46R      -0.192000
      3 C3           2.0690    -0.1880    -0.0910 cd         1 46R       0.215500
      4 C5          -1.7050    -0.7300    -0.5850 c3         1 46R       0.036000
      5 C6          -2.5460     0.0490     0.4570 c3         1 46R       0.277000
      6 F2          -2.5190     1.3780     0.2040 f          1 46R      -0.112333
      7 F           -3.8360    -0.3540     0.4220 f          1 46R      -0.112333
      8 F1          -2.0840    -0.1470     1.7130 f          1 46R      -0.112333
      9 N           -0.2870    -0.3160    -0.6490 ns         1 46R      -0.494900
     10 C4           0.7280    -0.8280     0.1430 c          1 46R       0.534600
     11 O            0.5260    -1.7250     0.9530 o          1 46R      -0.563100
     12 O1           3.6840     1.0910    -0.8670 os         1 46R      -0.050700
     13 C1           4.2400     0.2750     0.0850 cc         1 46R       0.156900
     14 H1           3.3790    -1.2840     1.3490 ha         1 46R       0.175000
     15 H2          -1.7590    -1.8020    -0.3540 h1         1 46R       0.093700
     16 H3          -2.1560    -0.5880    -1.5760 h1         1 46R       0.093700
     17 H4          -0.0190     0.4260    -1.2900 hn         1 46R       0.348500
     18 H5           5.2960     0.3710     0.2960 h4         1 46R       0.065100
@<TRIPOS>BOND
     1     1     3 2   
     2     1    12 1   
     3     2     3 1   
     4     2    13 2   
     5     2    14 1   
     6     3    10 1   
     7     4     5 1   
     8     4     9 1   
     9     4    15 1   
    10     4    16 1   
    11     5     6 1   
    12     5     7 1   
    13     5     8 1   
    14     9    10 1   
    15     9    17 1   
    16    10    11 2   
    17    12    13 1   
    18    13    18 1   
@<TRIPOS>SUBSTRUCTURE
     1 46R         1 TEMP              0 ****  ****    0 ROOT
