@<TRIPOS>MOLECULE
46S
   31    32     1     0     0
SMALL
bcc


@<TRIPOS>ATOM
      1 C4           2.0350     1.4680     0.8890 ca         1 46S       0.687900
      2 N1           2.8670     0.4550     1.0370 nb         1 46S      -0.753000
      3 N2          -0.6960     0.3440    -0.9840 nh         1 46S      -0.770300
      4 C1           2.4700    -0.7040     0.4840 ca         1 46S       0.475600
      5 N            0.8730     1.4810     0.2630 nb         1 46S      -0.797000
      6 C3           0.4690     0.3360    -0.3060 ca         1 46S       0.718200
      7 C2           1.2780    -0.8170    -0.1940 ca         1 46S      -0.438600
      8 H1           2.3370     2.4090     1.3380 h5         1 46S       0.041100
      9 H12          4.3720    -1.6440     0.2350 hc         1 46S       0.052367
     10 H13          3.5280    -2.1030     1.7030 hc         1 46S       0.052367
     11 H14          3.0060    -2.7640     0.1500 hc         1 46S       0.052367
     12 H15          0.9840    -1.7690    -0.6090 ha         1 46S       0.145000
     13 C7          -1.5730     1.5050    -0.9590 c3         1 46S       0.227800
     14 C5          -2.5500     1.4960     0.2080 c3         1 46S      -0.100400
     15 C8          -3.3950     0.2290     0.3310 c3         1 46S      -0.070400
     16 C9          -2.5940    -1.0230     0.6990 c3         1 46S      -0.070400
     17 C10         -1.9360    -1.7730    -0.4600 c3         1 46S      -0.100400
     18 C11         -1.2730    -0.8770    -1.5110 c3         1 46S       0.227800
     19 H2          -0.9730     2.4110    -0.9390 h1         1 46S       0.055450
     20 H3          -2.1250     1.5090    -1.9020 h1         1 46S       0.055450
     21 H4          -1.9970     1.6440     1.1410 hc         1 46S       0.047450
     22 H5          -3.2060     2.3650     0.0980 hc         1 46S       0.047450
     23 H6          -4.1390     0.4020     1.1120 hc         1 46S       0.039950
     24 H7          -3.9670     0.0640    -0.5900 hc         1 46S       0.039950
     25 H8          -1.8290    -0.7450     1.4320 hc         1 46S       0.039950
     26 H9          -3.2460    -1.7290     1.2190 hc         1 46S       0.039950
     27 H10         -1.2090    -2.4750    -0.0440 hc         1 46S       0.047450
     28 H11         -2.6800    -2.3840    -0.9780 hc         1 46S       0.047450
     29 H16         -2.0140    -0.5750    -2.2510 h1         1 46S       0.055450
     30 H17         -0.5210    -1.4390    -2.0690 h1         1 46S       0.055450
     31 C            3.3880    -1.8740     0.6460 c3         1 46S      -0.149400
@<TRIPOS>BOND
     1     1     2 ar  
     2     1     5 ar  
     3     1     8 1   
     4     2     4 ar  
     5     3     6 1   
     6     3    13 1   
     7     3    18 1   
     8     4     7 ar  
     9     4    31 1   
    10     5     6 ar  
    11     6     7 ar  
    12     7    12 1   
    13     9    31 1   
    14    10    31 1   
    15    11    31 1   
    16    13    14 1   
    17    13    19 1   
    18    13    20 1   
    19    14    15 1   
    20    14    21 1   
    21    14    22 1   
    22    15    16 1   
    23    15    23 1   
    24    15    24 1   
    25    16    17 1   
    26    16    25 1   
    27    16    26 1   
    28    17    18 1   
    29    17    27 1   
    30    17    28 1   
    31    18    29 1   
    32    18    30 1   
@<TRIPOS>SUBSTRUCTURE
     1 46S         1 TEMP              0 ****  ****    0 ROOT
