@<TRIPOS>MOLECULE
46S
   31    32     1     0     0
SMALL
No Charge or Current Charge


@<TRIPOS>ATOM
      1 C4           2.0400     1.4460     1.0540 ca         1 46S       0.161900
      2 N1           2.8940     0.4100     1.1660 nb         1 46S      -0.227000
      3 N2          -0.6860     0.3490    -1.0170 nh         1 46S      -0.770300
      4 C1           2.5520    -0.7190     0.5180 ca         1 46S       0.147300
      5 N            0.8840     1.4630     0.3620 nb         1 46S      -0.271000
      6 C3           0.5350     0.3330    -0.2880 ca         1 46S       0.389900
      7 C2           1.3690    -0.8010    -0.2330 ca         1 46S      -0.290000
      8 H1           2.3110     2.3620     1.5760 h5         1 46S       0.041100
      9 H12          4.2640    -1.8540    -0.1640 hc         1 46S       0.052367
     10 H13          4.0250    -1.9040     1.5920 hc         1 46S       0.052367
     11 H14          2.9720    -2.8480     0.5310 hc         1 46S       0.052367
     12 H15          1.1220    -1.7210    -0.7510 ha         1 46S       0.127000
     13 C7          -1.5920     1.5250    -1.0130 c3         1 46S       0.227800
     14 C5          -2.5930     1.5310     0.1650 c3         1 46S      -0.100400
     15 C8          -3.4630     0.2530     0.3130 c3         1 46S      -0.070400
     16 C9          -2.6670    -1.0180     0.7110 c3         1 46S      -0.070400
     17 C10         -1.9610    -1.7730    -0.4490 c3         1 46S      -0.100400
     18 C11         -1.3020    -0.8920    -1.5360 c3         1 46S       0.227800
     19 H2          -1.0180     2.4610    -1.0020 h1         1 46S       0.055450
     20 H3          -2.1660     1.5470    -1.9500 h1         1 46S       0.055450
     21 H4          -2.0410     1.6980     1.0980 hc         1 46S       0.047450
     22 H5          -3.2560     2.3960     0.0440 hc         1 46S       0.047450
     23 H6          -4.2080     0.4450     1.0960 hc         1 46S       0.039950
     24 H7          -4.0270     0.0700    -0.6100 hc         1 46S       0.039950
     25 H8          -1.9210    -0.7460     1.4680 hc         1 46S       0.039950
     26 H9          -3.3500    -1.7210     1.2040 hc         1 46S       0.039950
     27 H10         -1.1980    -2.4280    -0.0140 hc         1 46S       0.047450
     28 H11         -2.6850    -2.4340    -0.9420 hc         1 46S       0.047450
     29 H16         -2.0830    -0.6280    -2.2630 h1         1 46S       0.055450
     30 H17         -0.5730    -1.4850    -2.1040 h1         1 46S       0.055450
     31 C            3.5050    -1.8950     0.6260 c3         1 46S      -0.149400
@<TRIPOS>BOND
     1     1     2 ar  
     2     1     5 ar  
     3     1     8 1   
     4     2     4 ar  
     5     3     6 1   
     6     3    13 1   
     7     3    18 1   
     8     4     7 ar  
     9     4    31 1   
    10     5     6 ar  
    11     6     7 ar  
    12     7    12 1   
    13     9    31 1   
    14    10    31 1   
    15    11    31 1   
    16    13    14 1   
    17    13    19 1   
    18    13    20 1   
    19    14    15 1   
    20    14    21 1   
    21    14    22 1   
    22    15    16 1   
    23    15    23 1   
    24    15    24 1   
    25    16    17 1   
    26    16    25 1   
    27    16    26 1   
    28    17    18 1   
    29    17    27 1   
    30    17    28 1   
    31    18    29 1   
    32    18    30 1   
@<TRIPOS>SUBSTRUCTURE
     1 46S         1 TEMP              0 ****  ****    0 ROOT
