@<TRIPOS>MOLECULE
46T
   35    35     1     0     0
SMALL
No Charge or Current Charge


@<TRIPOS>ATOM
      1 C4           1.2560     1.9730    -1.3940 ce         1 46T      -0.314600
      2 C5           0.5500     3.1430    -1.4490 cf         1 46T      -0.141000
      3 C6          -0.7890     3.4220    -0.9350 cf         1 46T      -0.193000
      4 C7          -1.4230     2.7470     0.0490 c2         1 46T      -0.189200
      5 C8          -0.8480     1.5880     0.8240 c3         1 46T      -0.138500
      6 C9          -0.4290     0.4410    -0.0870 ce         1 46T       0.389000
      7 C10         -2.2560    -1.0810     0.5550 c3         1 46T       0.123500
      8 C11         -3.0820    -2.0610    -0.3010 c3         1 46T      -0.083600
      9 C12         -1.8610    -1.6980     1.9140 c3         1 46T      -0.083600
     10 C3           0.8500     0.6650    -0.8370 ce         1 46T       0.420300
     11 N            1.6780    -0.3110    -1.0900 n2         1 46T      -0.554900
     12 C1           2.1390    -1.2180    -0.0290 c3         1 46T       0.121500
     13 C2           1.9580    -2.6790    -0.4900 c3         1 46T      -0.086100
     14 C            3.6060    -0.8920     0.3120 c3         1 46T      -0.086100
     15 H1           2.2410     1.9740    -1.8600 ha         1 46T       0.178000
     16 H2           1.0260     3.9790    -1.9690 ha         1 46T       0.169000
     17 H3          -1.2980     4.2820    -1.3790 ha         1 46T       0.178000
     18 H4          -2.4240     3.0600     0.3570 ha         1 46T       0.178000
     19 H5           0.0370     1.9400     1.3680 hc         1 46T       0.065700
     20 H6          -1.5420     1.2710     1.6080 hc         1 46T       0.065700
     21 H7          -2.8900    -0.2030     0.7370 h1         1 46T       0.026700
     22 H8          -2.5100    -2.9710    -0.5190 hc         1 46T       0.039867
     23 H9          -4.0010    -2.3490     0.2230 hc         1 46T       0.039867
     24 H10         -3.3670    -1.5970    -1.2530 hc         1 46T       0.039867
     25 H11         -1.2870    -0.9860     2.5180 hc         1 46T       0.039867
     26 H12         -2.7550    -1.9780     2.4820 hc         1 46T       0.039867
     27 H13         -1.2490    -2.5970     1.7710 hc         1 46T       0.039867
     28 H14          1.5490    -1.0810     0.8880 h1         1 46T       0.031700
     29 H15          2.2890    -3.3710     0.2930 hc         1 46T       0.040367
     30 H16          0.9040    -2.8900    -0.7040 hc         1 46T       0.040367
     31 H17          2.5410    -2.8800    -1.3970 hc         1 46T       0.040367
     32 H18          3.7010     0.1450     0.6590 hc         1 46T       0.040367
     33 H19          3.9710    -1.5500     1.1100 hc         1 46T       0.040367
     34 H20          4.2530    -1.0240    -0.5640 hc         1 46T       0.040367
     35 N1          -1.0450    -0.7120    -0.1900 n2         1 46T      -0.558900
@<TRIPOS>BOND
     1     1     2 2   
     2     1    10 1   
     3     1    15 1   
     4     2     3 1   
     5     2    16 1   
     6     3     4 2   
     7     3    17 1   
     8     4     5 1   
     9     4    18 1   
    10     5     6 1   
    11     5    19 1   
    12     5    20 1   
    13     6    10 1   
    14     6    35 2   
    15     7     8 1   
    16     7     9 1   
    17     7    21 1   
    18     7    35 1   
    19     8    22 1   
    20     8    23 1   
    21     8    24 1   
    22     9    25 1   
    23     9    26 1   
    24     9    27 1   
    25    10    11 2   
    26    11    12 1   
    27    12    13 1   
    28    12    14 1   
    29    12    28 1   
    30    13    29 1   
    31    13    30 1   
    32    13    31 1   
    33    14    32 1   
    34    14    33 1   
    35    14    34 1   
@<TRIPOS>SUBSTRUCTURE
     1 46T         1 TEMP              0 ****  ****    0 ROOT
