@<TRIPOS>MOLECULE
46T
   35    35     1     0     0
SMALL
abcg2


@<TRIPOS>ATOM
      1 C4           1.3730     1.5920    -0.3330 ce         1 46T      -0.314600
      2 C5           0.7020     2.6580    -0.8110 cf         1 46T      -0.141000
      3 C6          -0.7250     2.9300    -0.8510 cf         1 46T      -0.193000
      4 C7          -1.6230     2.4220    -0.0000 c2         1 46T      -0.189200
      5 C8          -1.2500     1.4420     1.0670 c3         1 46T      -0.138500
      6 C9          -0.6430     0.2240     0.4110 ce         1 46T       0.389000
      7 C10         -2.6600    -1.0100     0.1890 c3         1 46T       0.123500
      8 C11         -3.2490    -1.4160    -1.1560 c3         1 46T      -0.083600
      9 C12         -2.8730    -2.0940     1.2400 c3         1 46T      -0.083600
     10 C3           0.8360     0.3230     0.1740 ce         1 46T       0.420300
     11 N            1.5140    -0.7230     0.4260 n2         1 46T      -0.554900
     12 C1           2.9470    -0.7960     0.2160 c3         1 46T       0.121500
     13 C2           3.5260    -1.8020     1.2030 c3         1 46T      -0.086100
     14 C            3.2230    -1.2190    -1.2250 c3         1 46T      -0.086100
     15 H1           2.4510     1.6610    -0.3920 ha         1 46T       0.178000
     16 H2           1.3170     3.4440    -1.2360 ha         1 46T       0.169000
     17 H3          -1.0510     3.6590    -1.5830 ha         1 46T       0.178000
     18 H4          -2.6630     2.7150    -0.0840 ha         1 46T       0.178000
     19 H5          -0.5010     1.8890     1.7310 hc         1 46T       0.065700
     20 H6          -2.1100     1.1910     1.6850 hc         1 46T       0.065700
     21 H7          -3.1770    -0.1020     0.5220 h1         1 46T       0.026700
     22 H8          -2.7810    -2.3310    -1.5230 hc         1 46T       0.039867
     23 H9          -4.3210    -1.5950    -1.0650 hc         1 46T       0.039867
     24 H10         -3.1020    -0.6350    -1.9020 hc         1 46T       0.039867
     25 H11         -2.4640    -1.7940     2.2050 hc         1 46T       0.039867
     26 H12         -3.9370    -2.2920     1.3730 hc         1 46T       0.039867
     27 H13         -2.3890    -3.0250     0.9390 hc         1 46T       0.039867
     28 H14          3.4440     0.1650     0.3930 h1         1 46T       0.031700
     29 H15          4.6090    -1.8610     1.0960 hc         1 46T       0.040367
     30 H16          3.3060    -1.5150     2.2320 hc         1 46T       0.040367
     31 H17          3.1110    -2.7970     1.0330 hc         1 46T       0.040367
     32 H18          2.8710    -0.4690    -1.9350 hc         1 46T       0.040367
     33 H19          4.2930    -1.3570    -1.3800 hc         1 46T       0.040367
     34 H20          2.7230    -2.1620    -1.4540 hc         1 46T       0.040367
     35 N1          -1.2340    -0.8190     0.0170 n2         1 46T      -0.558900
@<TRIPOS>BOND
     1     1     2 2   
     2     1    10 1   
     3     1    15 1   
     4     2     3 1   
     5     2    16 1   
     6     3     4 2   
     7     3    17 1   
     8     4     5 1   
     9     4    18 1   
    10     5     6 1   
    11     5    19 1   
    12     5    20 1   
    13     6    10 1   
    14     6    35 2   
    15     7     8 1   
    16     7     9 1   
    17     7    21 1   
    18     7    35 1   
    19     8    22 1   
    20     8    23 1   
    21     8    24 1   
    22     9    25 1   
    23     9    26 1   
    24     9    27 1   
    25    10    11 2   
    26    11    12 1   
    27    12    13 1   
    28    12    14 1   
    29    12    28 1   
    30    13    29 1   
    31    13    30 1   
    32    13    31 1   
    33    14    32 1   
    34    14    33 1   
    35    14    34 1   
@<TRIPOS>SUBSTRUCTURE
     1 46T         1 TEMP              0 ****  ****    0 ROOT
