@<TRIPOS>MOLECULE
46U
   58    60     1     0     0
SMALL
bcc


@<TRIPOS>ATOM
      1 O32          1.6810    -0.5420     0.4750 o          1 46U      -0.576100
      2 C14          2.2260     0.5240     0.2350 c          1 46U       0.677100
      3 C5           3.7220     0.6400     0.0070 c3         1 46U       0.066400
      4 O21          4.3070    -0.5920     0.2830 os         1 46U      -0.381600
      5 C44          5.6710    -0.6970    -0.0830 c6         1 46U       0.150100
      6 C49          6.0380    -2.1720    -0.0180 c6         1 46U      -0.090400
      7 C48          7.5040    -2.3970    -0.3780 c6         1 46U      -0.072400
      8 C47          8.4260    -1.5680     0.5090 c6         1 46U      -0.076400
      9 C46          8.0560    -0.0900     0.4470 c6         1 46U      -0.072400
     10 C45          6.5890     0.1330     0.8120 c6         1 46U      -0.090400
     11 N1           1.5380     1.6740     0.1580 n          1 46U      -0.474800
     12 C1           0.1030     1.6720     0.3370 c5         1 46U       0.033700
     13 C7          -0.5810     0.9180    -0.7980 c          1 46U       0.661100
     14 O22         -0.1440     0.9310    -1.9390 o          1 46U      -0.598100
     15 C2          -0.2560     3.1660     0.3080 c5         1 46U      -0.081400
     16 C3           0.8290     3.7840    -0.5680 c5         1 46U      -0.093400
     17 C4           2.0730     2.9810    -0.2070 c5         1 46U       0.110000
     18 N23         -1.7240     0.3090    -0.4510 ns         1 46U      -0.567900
     19 C24         -2.5460    -0.4220    -1.3950 c3         1 46U       0.148300
     20 C25         -3.9430    -0.5730    -0.8620 ca         1 46U      -0.099300
     21 C30         -4.4390    -1.8190    -0.5010 ca         1 46U      -0.124500
     22 C29         -5.7250    -1.9530     0.0040 ca         1 46U      -0.099500
     23 C28         -6.5450    -0.8380     0.1550 ca         1 46U      -0.138900
     24 C21         -7.9330    -0.9510     0.6810 ce         1 46U       0.656800
     25 N46         -8.7980    -0.0850     0.3150 n2         1 46U      -0.824100
     26 N47         -8.1640    -2.0300     1.4870 nv         1 46U      -0.962800
     27 C27         -6.0510     0.4120    -0.2170 ca         1 46U      -0.099500
     28 C26         -4.7660     0.5430    -0.7120 ca         1 46U      -0.124500
     29 H5           3.8980     0.9500    -1.0350 h1         1 46U       0.036200
     30 H5A          4.1220     1.4480     0.6350 h1         1 46U       0.036200
     31 H44          5.7950    -0.3490    -1.1230 h1         1 46U       0.029700
     32 H49          5.8510    -2.5410     0.9970 hc         1 46U       0.050450
     33 H49A         5.3910    -2.7410    -0.6900 hc         1 46U       0.050450
     34 H48          7.7450    -3.4590    -0.2980 hc         1 46U       0.039700
     35 H48A         7.6670    -2.1200    -1.4250 hc         1 46U       0.039700
     36 H47          8.3470    -1.9170     1.5440 hc         1 46U       0.040700
     37 H47A         9.4670    -1.7100     0.2110 hc         1 46U       0.040700
     38 H46          8.6930     0.4930     1.1150 hc         1 46U       0.039700
     39 H46A         8.2410     0.2880    -0.5650 hc         1 46U       0.039700
     40 H45          6.3520     1.1980     0.7350 hc         1 46U       0.050450
     41 H45A         6.4220    -0.1580     1.8550 hc         1 46U       0.050450
     42 H1          -0.1680     1.2250     1.2970 h1         1 46U       0.073700
     43 H2          -1.2660     3.3450    -0.0600 hc         1 46U       0.057200
     44 H2A         -0.2000     3.5630     1.3220 hc         1 46U       0.057200
     45 H3           0.5920     3.6570    -1.6240 hc         1 46U       0.063700
     46 H3A          0.9640     4.8480    -0.3800 hc         1 46U       0.063700
     47 H4           2.6050     3.4310     0.6360 h1         1 46U       0.045700
     48 H4A          2.7700     2.9100    -1.0440 h1         1 46U       0.045700
     49 HN23        -1.9620     0.2450     0.5250 hn         1 46U       0.317500
     50 H24         -2.5640     0.1270    -2.3380 h1         1 46U       0.062700
     51 H24A        -2.1150    -1.4050    -1.6040 h1         1 46U       0.062700
     52 H30         -3.8190    -2.6990    -0.6180 ha         1 46U       0.137000
     53 H29         -6.0850    -2.9410     0.2610 ha         1 46U       0.147000
     54 HN46        -9.6950    -0.2510     0.7620 hn         1 46U       0.371400
     55 HN47        -7.3950    -2.3890     2.0300 hn         1 46U       0.404800
     56 HN4A        -9.0450    -2.0580     1.9760 hn         1 46U       0.404800
     57 H27         -6.6810     1.2850    -0.1100 ha         1 46U       0.147000
     58 H26         -4.3980     1.5240    -0.9870 ha         1 46U       0.137000
@<TRIPOS>BOND
     1     1     2 2   
     2     2     3 1   
     3     2    11 1   
     4     3     4 1   
     5     3    29 1   
     6     3    30 1   
     7     4     5 1   
     8     5     6 1   
     9     5    10 1   
    10     5    31 1   
    11     6     7 1   
    12     6    32 1   
    13     6    33 1   
    14     7     8 1   
    15     7    34 1   
    16     7    35 1   
    17     8     9 1   
    18     8    36 1   
    19     8    37 1   
    20     9    10 1   
    21     9    38 1   
    22     9    39 1   
    23    10    40 1   
    24    10    41 1   
    25    11    12 1   
    26    11    17 1   
    27    12    13 1   
    28    12    15 1   
    29    12    42 1   
    30    13    14 2   
    31    13    18 1   
    32    15    16 1   
    33    15    43 1   
    34    15    44 1   
    35    16    17 1   
    36    16    45 1   
    37    16    46 1   
    38    17    47 1   
    39    17    48 1   
    40    18    19 1   
    41    18    49 1   
    42    19    20 1   
    43    19    50 1   
    44    19    51 1   
    45    20    21 ar  
    46    20    28 ar  
    47    21    22 ar  
    48    21    52 1   
    49    22    23 ar  
    50    22    53 1   
    51    23    24 1   
    52    23    27 ar  
    53    24    25 2   
    54    24    26 1   
    55    25    54 1   
    56    26    55 1   
    57    26    56 1   
    58    27    28 ar  
    59    27    57 1   
    60    28    58 1   
@<TRIPOS>SUBSTRUCTURE
     1 46U         1 TEMP              0 ****  ****    0 ROOT
