@<TRIPOS>MOLECULE
46U
   58    60     1     0     0
SMALL
No Charge or Current Charge


@<TRIPOS>ATOM
      1 O32          1.8590    -0.9370     0.3400 o          1 46U      -0.576100
      2 C14          2.3480     0.1730     0.1440 c          1 46U       0.610100
      3 C5           3.8800     0.3920    -0.0190 c3         1 46U       0.089600
      4 O21          4.6490    -0.8310     0.1230 os         1 46U      -0.428000
      5 C44          6.0650    -0.7650    -0.1440 c6         1 46U       0.173300
      6 C49          6.6480    -2.2010    -0.1230 c6         1 46U      -0.090400
      7 C48          8.1770    -2.2010    -0.3710 c6         1 46U      -0.072400
      8 C47          8.9080    -1.3040     0.6570 c6         1 46U      -0.076400
      9 C46          8.3380     0.1360     0.6420 c6         1 46U      -0.072400
     10 C45          6.8070     0.1410     0.8820 c6         1 46U      -0.090400
     11 N1           1.5110     1.3080     0.0690 n          1 46U      -0.407800
     12 C1           0.0300     1.2230     0.2100 c5         1 46U       0.033700
     13 C7          -0.7020     0.6700    -1.0570 c          1 46U       0.594100
     14 O22         -0.2330     0.4920    -2.1750 o          1 46U      -0.598100
     15 C2          -0.3340     2.7250     0.4260 c5         1 46U      -0.081400
     16 C3           0.7010     3.4490    -0.4720 c5         1 46U      -0.093400
     17 C4           2.0070     2.6870    -0.1360 c5         1 46U       0.110000
     18 N23         -2.0050     0.3620    -0.7350 ns         1 46U      -0.500900
     19 C24         -2.9750    -0.1820    -1.6800 c3         1 46U       0.148300
     20 C25         -4.3420    -0.3330    -1.0310 ca         1 46U      -0.099300
     21 C30         -4.7100    -1.5440    -0.4200 ca         1 46U      -0.106500
     22 C29         -5.9720    -1.6830     0.1850 ca         1 46U      -0.081500
     23 C28         -6.8890    -0.6040     0.2040 ca         1 46U      -0.138900
     24 C21         -8.2530    -0.7460     0.8160 ce         1 46U       0.656800
     25 N46         -9.2190     0.0350     0.5570 n2         1 46U      -0.824100
     26 N47         -8.4310    -1.6900     1.7670 nv         1 46U      -1.073200
     27 C27         -6.5140     0.6030    -0.4320 ca         1 46U      -0.081500
     28 C26         -5.2520     0.7390    -1.0350 ca         1 46U      -0.106500
     29 H5           4.0460     0.8320    -1.0110 h1         1 46U       0.036200
     30 H5A          4.1840     1.1310     0.7320 h1         1 46U       0.036200
     31 H44          6.2070    -0.3490    -1.1520 h1         1 46U       0.029700
     32 H49          6.4320    -2.6740     0.8450 hc         1 46U       0.050450
     33 H49A         6.1510    -2.8130    -0.8880 hc         1 46U       0.050450
     34 H48          8.5650    -3.2280    -0.3110 hc         1 46U       0.039700
     35 H48A         8.3880    -1.8460    -1.3890 hc         1 46U       0.039700
     36 H47          8.8040    -1.7320     1.6640 hc         1 46U       0.040700
     37 H47A         9.9830    -1.2820     0.4360 hc         1 46U       0.040700
     38 H46          8.8380     0.7420     1.4100 hc         1 46U       0.039700
     39 H46A         8.5620     0.6110    -0.3240 hc         1 46U       0.039700
     40 H45          6.4440     1.1750     0.8130 hc         1 46U       0.050450
     41 H45A         6.5920    -0.2030     1.9030 hc         1 46U       0.050450
     42 H1          -0.2600     0.6120     1.0750 h1         1 46U       0.073700
     43 H2          -1.3700     2.9650     0.1590 hc         1 46U       0.057200
     44 H2A         -0.2000     3.0090     1.4770 hc         1 46U       0.057200
     45 H3           0.4470     3.3470    -1.5340 hc         1 46U       0.063700
     46 H3A          0.7760     4.5210    -0.2570 hc         1 46U       0.063700
     47 H4           2.4710     3.0700     0.7840 h1         1 46U       0.045700
     48 H4A          2.7370     2.7580    -0.9530 h1         1 46U       0.045700
     49 HN23        -2.3060     0.5350     0.2160 hn         1 46U       0.317500
     50 H24         -3.0470     0.4880    -2.5470 h1         1 46U       0.062700
     51 H24A        -2.6190    -1.1590    -2.0360 h1         1 46U       0.062700
     52 H30         -4.0190    -2.3850    -0.4170 ha         1 46U       0.119000
     53 H29         -6.2330    -2.6420     0.6280 ha         1 46U       0.129000
     54 HN46       -10.0750    -0.3850     0.9330 hn         1 46U       0.371400
     55 HN47        -7.5750    -2.0700     2.1540 hn         1 46U       0.460000
     56 HN4A        -9.1640    -1.5120     2.4430 hn         1 46U       0.460000
     57 H27         -7.2000     1.4470    -0.4530 ha         1 46U       0.129000
     58 H26         -4.9820     1.6810    -1.5070 ha         1 46U       0.119000
@<TRIPOS>BOND
     1     1     2 2   
     2     2     3 1   
     3     2    11 1   
     4     3     4 1   
     5     3    29 1   
     6     3    30 1   
     7     4     5 1   
     8     5     6 1   
     9     5    10 1   
    10     5    31 1   
    11     6     7 1   
    12     6    32 1   
    13     6    33 1   
    14     7     8 1   
    15     7    34 1   
    16     7    35 1   
    17     8     9 1   
    18     8    36 1   
    19     8    37 1   
    20     9    10 1   
    21     9    38 1   
    22     9    39 1   
    23    10    40 1   
    24    10    41 1   
    25    11    12 1   
    26    11    17 1   
    27    12    13 1   
    28    12    15 1   
    29    12    42 1   
    30    13    14 2   
    31    13    18 1   
    32    15    16 1   
    33    15    43 1   
    34    15    44 1   
    35    16    17 1   
    36    16    45 1   
    37    16    46 1   
    38    17    47 1   
    39    17    48 1   
    40    18    19 1   
    41    18    49 1   
    42    19    20 1   
    43    19    50 1   
    44    19    51 1   
    45    20    21 ar  
    46    20    28 ar  
    47    21    22 ar  
    48    21    52 1   
    49    22    23 ar  
    50    22    53 1   
    51    23    24 1   
    52    23    27 ar  
    53    24    25 2   
    54    24    26 1   
    55    25    54 1   
    56    26    55 1   
    57    26    56 1   
    58    27    28 ar  
    59    27    57 1   
    60    28    58 1   
@<TRIPOS>SUBSTRUCTURE
     1 46U         1 TEMP              0 ****  ****    0 ROOT
