@<TRIPOS>MOLECULE
46V
   21    21     1     0     0
SMALL
No Charge or Current Charge


@<TRIPOS>ATOM
      1 C4           1.2620     1.1590     0.5370 ca         1 46V      -0.069000
      2 C5           2.0110    -0.0060     0.3080 ca         1 46V      -0.018900
      3 C6           1.3600    -1.2280     0.0830 ca         1 46V      -0.067000
      4 C7          -0.0440    -1.2850     0.0790 ca         1 46V       0.092000
      5 Cl          -0.8320    -2.8400    -0.2000 cl         1 46V      -0.194000
      6 Br           3.9230     0.0710     0.3170 br         1 46V      -0.080100
      7 C3          -0.1440     1.1040     0.5320 ca         1 46V      -0.079000
      8 C2          -0.8120    -0.1160     0.2870 ca         1 46V       0.082600
      9 C1          -3.2430     0.6690     0.0410 cs         1 46V       0.473400
     10 S           -3.0560     2.2260    -0.5410 s          1 46V      -0.635400
     11 N           -4.4670     0.1010     0.2490 ns         1 46V      -0.445900
     12 C           -5.7610     0.7570     0.0400 c3         1 46V       0.100300
     13 H1           1.7670     2.1030     0.7260 ha         1 46V       0.139000
     14 H2           1.9390    -2.1320    -0.0860 ha         1 46V       0.146000
     15 H3          -2.5480    -1.1490     0.5240 hn         1 46V       0.316500
     16 H4          -0.6990     2.0110     0.7430 ha         1 46V       0.144000
     17 H5          -4.4870    -0.8550     0.5870 hn         1 46V       0.305500
     18 H6          -5.8310     1.6500     0.6740 h1         1 46V       0.055700
     19 H7          -5.8630     1.0480    -1.0130 h1         1 46V       0.055700
     20 H8          -6.5720     0.0650     0.3030 h1         1 46V       0.055700
     21 N1          -2.2300    -0.2170     0.2890 ns         1 46V      -0.379100
@<TRIPOS>BOND
     1     1     2 ar  
     2     1     7 ar  
     3     1    13 1   
     4     2     3 ar  
     5     2     6 1   
     6     3     4 ar  
     7     3    14 1   
     8     4     5 1   
     9     4     8 ar  
    10     7     8 ar  
    11     7    16 1   
    12     8    21 1   
    13     9    10 2   
    14     9    11 1   
    15     9    21 1   
    16    11    12 1   
    17    11    17 1   
    18    12    18 1   
    19    12    19 1   
    20    12    20 1   
    21    15    21 1   
@<TRIPOS>SUBSTRUCTURE
     1 46V         1 TEMP              0 ****  ****    0 ROOT
