@<TRIPOS>MOLECULE
46V
   21    21     1     0     0
SMALL
abcg2


@<TRIPOS>ATOM
      1 C4           1.1620     1.1410     0.6740 ca         1 46V      -0.069000
      2 C5           1.9110     0.0660     0.2130 ca         1 46V      -0.018900
      3 C6           1.3060    -1.1290    -0.1330 ca         1 46V      -0.067000
      4 C7          -0.0740    -1.2320    -0.0260 ca         1 46V       0.092000
      5 CL          -0.8320    -2.7170    -0.4790 cl         1 46V      -0.194000
      6 BR           3.7810     0.2290     0.0620 br         1 46V      -0.080100
      7 C3          -0.2090     1.0080     0.7910 ca         1 46V      -0.079000
      8 C2          -0.8540    -0.1730     0.4330 ca         1 46V       0.082600
      9 C1          -3.1930     0.4750     0.0530 cs         1 46V       0.473400
     10 S           -2.8510     1.7700    -0.9560 s          1 46V      -0.635400
     11 N           -4.4390     0.1420     0.3840 ns         1 46V      -0.445900
     12 C           -5.6150     0.8180    -0.1060 c3         1 46V       0.100300
     13 H1           1.6340     2.0710     0.9600 ha         1 46V       0.139000
     14 H2           1.8810    -1.9720    -0.4890 ha         1 46V       0.146000
     15 H3          -2.5370    -1.1890     1.0220 hn         1 46V       0.316500
     16 H4          -0.7920     1.8360     1.1690 ha         1 46V       0.144000
     17 H5          -4.5860    -0.6390     1.0060 hn         1 46V       0.305500
     18 H6          -5.6040     1.8740     0.1570 h1         1 46V       0.055700
     19 H7          -5.7000     0.7380    -1.1900 h1         1 46V       0.055700
     20 H8          -6.4820     0.3480     0.3500 h1         1 46V       0.055700
     21 N1          -2.2340    -0.3290     0.5860 ns         1 46V      -0.379100
@<TRIPOS>BOND
     1     1     2 ar  
     2     1     7 ar  
     3     1    13 1   
     4     2     3 ar  
     5     2     6 1   
     6     3     4 ar  
     7     3    14 1   
     8     4     5 1   
     9     4     8 ar  
    10     7     8 ar  
    11     7    16 1   
    12     8    21 1   
    13     9    10 2   
    14     9    11 1   
    15     9    21 1   
    16    11    12 1   
    17    11    17 1   
    18    12    18 1   
    19    12    19 1   
    20    12    20 1   
    21    15    21 1   
@<TRIPOS>SUBSTRUCTURE
     1 46V         1 TEMP              0 ****  ****    0 ROOT
