@<TRIPOS>MOLECULE
46X
   24    25     1     0     0
SMALL
No Charge or Current Charge


@<TRIPOS>ATOM
      1 C4          -2.2860     0.8710    -0.9980 c5         1 46X       0.227300
      2 C5           1.1850     0.0710     0.4670 cc         1 46X      -0.295000
      3 C6           1.2310    -0.7640     1.6070 cg         1 46X       0.384000
      4 N1           0.6510     1.3020    -1.2730 na         1 46X      -0.063200
      5 C7           2.2860     0.6840    -0.1300 cc         1 46X       0.547900
      6 N2          -1.2480     0.1960    -0.1730 nh         1 46X      -0.835400
      7 N3           1.2910    -1.4670     2.5370 n1         1 46X      -0.512000
      8 N4           3.5480     0.5480     0.2990 nv         1 46X      -1.009900
      9 N            2.0430     1.4300    -1.1720 nd         1 46X      -0.589800
     10 C            0.1230     0.4750    -0.2770 cd         1 46X       0.370000
     11 C3          -3.5720     0.5260    -0.2070 c5         1 46X      -0.092900
     12 C2          -3.2720    -0.9270     0.2430 c5         1 46X      -0.092900
     13 C1          -1.8250    -0.7890     0.7810 c5         1 46X       0.227300
     14 H1          -2.1370     1.9580    -1.0700 h1         1 46X       0.053950
     15 H2          -2.3170     0.4550    -2.0150 h1         1 46X       0.053950
     16 H3           0.1120     1.7630    -1.9980 hn         1 46X       0.371000
     17 H4           4.2760     0.8560    -0.3370 hn         1 46X       0.454500
     18 H5           3.7690    -0.2330     0.9070 hn         1 46X       0.454500
     19 H6          -3.7000     1.1930     0.6540 hc         1 46X       0.059950
     20 H7          -4.4750     0.6050    -0.8230 hc         1 46X       0.059950
     21 H8          -3.9670    -1.2910     1.0070 hc         1 46X       0.059950
     22 H9          -3.3150    -1.6240    -0.6020 hc         1 46X       0.059950
     23 H10         -1.2990    -1.7540     0.7700 h1         1 46X       0.053950
     24 H11         -1.8150    -0.3970     1.8080 h1         1 46X       0.053950
@<TRIPOS>BOND
     1     1     6 1   
     2     1    11 1   
     3     1    14 1   
     4     1    15 1   
     5     2     3 1   
     6     2     5 1   
     7     2    10 2   
     8     3     7 3   
     9     4     9 1   
    10     4    10 1   
    11     4    16 1   
    12     5     8 1   
    13     5     9 2   
    14     6    10 1   
    15     6    13 1   
    16     8    17 1   
    17     8    18 1   
    18    11    12 1   
    19    11    19 1   
    20    11    20 1   
    21    12    13 1   
    22    12    21 1   
    23    12    22 1   
    24    13    23 1   
    25    13    24 1   
@<TRIPOS>SUBSTRUCTURE
     1 46X         1 TEMP              0 ****  ****    0 ROOT
