@<TRIPOS>MOLECULE
46X
   24    25     1     0     0
SMALL
bcc


@<TRIPOS>ATOM
      1 C4          -2.2600     0.9120    -0.9420 c5         1 46X       0.227300
      2 C5           1.1600     0.0380     0.4970 cc         1 46X      -0.360300
      3 C6           1.1980    -0.7700     1.6360 cg         1 46X       0.294800
      4 N1           0.5630     1.3150    -1.1690 na         1 46X      -0.063600
      5 C7           2.2880     0.6440    -0.1380 cc         1 46X       0.613200
      6 N2          -1.2560     0.2710    -0.1020 nh         1 46X      -0.697000
      7 N3           1.2800    -1.4300     2.5840 n1         1 46X      -0.422800
      8 N4           3.5900     0.5240     0.2740 nv         1 46X      -0.899500
      9 N            1.9260     1.4010    -1.1380 nd         1 46X      -0.589800
     10 C            0.0500     0.5070    -0.2330 cd         1 46X       0.282300
     11 C3          -3.5720     0.4600    -0.3130 c5         1 46X      -0.092900
     12 C2          -3.2310    -0.9120     0.2600 c5         1 46X      -0.092900
     13 C1          -1.8180    -0.7240     0.8010 c5         1 46X       0.227300
     14 H1          -2.1440     1.9980    -0.9340 h1         1 46X       0.053950
     15 H2          -2.1760     0.5720    -1.9800 h1         1 46X       0.053950
     16 H3           0.0620     1.7800    -1.9080 hn         1 46X       0.320700
     17 H4           4.2660     0.8020    -0.4210 hn         1 46X       0.399300
     18 H5           3.8280    -0.3710     0.6710 hn         1 46X       0.399300
     19 H6          -3.8600     1.1440     0.4870 hc         1 46X       0.059950
     20 H7          -4.3830     0.4330    -1.0400 hc         1 46X       0.059950
     21 H8          -3.9240    -1.2400     1.0330 hc         1 46X       0.059950
     22 H9          -3.2280    -1.6630    -0.5330 hc         1 46X       0.059950
     23 H10         -1.2400    -1.6490     0.7800 h1         1 46X       0.053950
     24 H11         -1.8310    -0.3550     1.8310 h1         1 46X       0.053950
@<TRIPOS>BOND
     1     1     6 1   
     2     1    11 1   
     3     1    14 1   
     4     1    15 1   
     5     2     3 1   
     6     2     5 1   
     7     2    10 2   
     8     3     7 3   
     9     4     9 1   
    10     4    10 1   
    11     4    16 1   
    12     5     8 1   
    13     5     9 2   
    14     6    10 1   
    15     6    13 1   
    16     8    17 1   
    17     8    18 1   
    18    11    12 1   
    19    11    19 1   
    20    11    20 1   
    21    12    13 1   
    22    12    21 1   
    23    12    22 1   
    24    13    23 1   
    25    13    24 1   
@<TRIPOS>SUBSTRUCTURE
     1 46X         1 TEMP              0 ****  ****    0 ROOT
