@<TRIPOS>MOLECULE
46Y
   42    43     1     0     0
SMALL
No Charge or Current Charge


@<TRIPOS>ATOM
      1 C4          -2.4200    -0.0910    -0.0380 ca         1 46Y       0.675900
      2 C5          -3.4280     0.8860    -0.1370 ca         1 46Y      -0.181000
      3 C6          -3.0850     2.2680    -0.2990 cg         1 46Y       0.339000
      4 N2          -1.0700     0.2130    -0.0890 nu         1 46Y      -0.929100
      5 C14         -4.1810    -3.2820     0.3420 c3         1 46Y      -0.151400
      6 C1          -4.7750     0.4720    -0.0750 ca         1 46Y       0.056700
      7 C           -5.9410     1.4520    -0.1750 c3         1 46Y      -0.062800
      8 N           -2.6650    -1.3970     0.1140 nb         1 46Y      -0.772000
      9 C3          -3.9480    -1.7940     0.1760 ca         1 46Y       0.439300
     10 C2          -5.0240    -0.9000     0.0840 ca         1 46Y      -0.242000
     11 H4          -0.8580     1.2000    -0.2100 hn         1 46Y       0.501000
     12 H6          -3.4000    -3.7440     0.9570 hc         1 46Y       0.054033
     13 H7          -5.1430    -3.4800     0.8290 hc         1 46Y       0.054033
     14 H8          -4.1870    -3.7840    -0.6320 hc         1 46Y       0.054033
     15 H9          -5.9240     1.9900    -1.1300 hc         1 46Y       0.055033
     16 H10         -6.9080     0.9400    -0.1060 hc         1 46Y       0.055033
     17 H11         -5.9050     2.1930     0.6320 hc         1 46Y       0.055033
     18 H12         -6.0420    -1.2750     0.1350 ha         1 46Y       0.126000
     19 N1          -2.7930     3.3900    -0.4300 n1         1 46Y      -0.479000
     20 C7           0.0660    -0.7200    -0.0100 c3         1 46Y       0.231800
     21 C8           1.3990     0.0430    -0.1050 c3         1 46Y      -0.100400
     22 C9           2.6180    -0.9010    -0.0250 c3         1 46Y       0.173800
     23 N3           3.9270    -0.2430    -0.2620 n3         1 46Y      -0.717600
     24 C11          5.0410    -1.2350    -0.3970 c6         1 46Y       0.126300
     25 C12          6.4090    -0.5410    -0.6700 c6         1 46Y       0.153100
     26 O1           6.6920     0.4340     0.3610 os         1 46Y      -0.449000
     27 C15          5.6680     1.4520     0.4590 c6         1 46Y       0.153100
     28 C16          4.2810     0.8040     0.7520 c6         1 46Y       0.126300
     29 H1           0.0350    -1.2730     0.9390 h1         1 46Y       0.053700
     30 H2           0.0110    -1.4520    -0.8290 h1         1 46Y       0.053700
     31 H3           1.4360     0.5950    -1.0520 hc         1 46Y       0.054200
     32 H5           1.4450     0.7760     0.7090 hc         1 46Y       0.054200
     33 H13          2.6190    -1.3940     0.9570 h1         1 46Y       0.033700
     34 H14          2.4750    -1.6890    -0.7770 h1         1 46Y       0.033700
     35 H15          5.1300    -1.8350     0.5210 h1         1 46Y       0.040950
     36 H16          4.8320    -1.9350    -1.2190 h1         1 46Y       0.040950
     37 H17          7.2120    -1.2910    -0.6880 h1         1 46Y       0.051450
     38 H18          6.3870    -0.0400    -1.6490 h1         1 46Y       0.051450
     39 H19          5.9320     2.1520     1.2640 h1         1 46Y       0.051450
     40 H20          5.6260     2.0160    -0.4850 h1         1 46Y       0.051450
     41 H21          3.5290     1.6050     0.7650 h1         1 46Y       0.040950
     42 H22          4.3040     0.3660     1.7610 h1         1 46Y       0.040950
@<TRIPOS>BOND
     1     1     2 ar  
     2     1     4 1   
     3     1     8 ar  
     4     2     3 1   
     5     2     6 ar  
     6     3    19 3   
     7     4    11 1   
     8     4    20 1   
     9     5     9 1   
    10     5    12 1   
    11     5    13 1   
    12     5    14 1   
    13     6     7 1   
    14     6    10 ar  
    15     7    15 1   
    16     7    16 1   
    17     7    17 1   
    18     8     9 ar  
    19     9    10 ar  
    20    10    18 1   
    21    20    21 1   
    22    20    29 1   
    23    20    30 1   
    24    21    22 1   
    25    21    31 1   
    26    21    32 1   
    27    22    23 1   
    28    22    33 1   
    29    22    34 1   
    30    23    24 1   
    31    23    28 1   
    32    24    25 1   
    33    24    35 1   
    34    24    36 1   
    35    25    26 1   
    36    25    37 1   
    37    25    38 1   
    38    26    27 1   
    39    27    28 1   
    40    27    39 1   
    41    27    40 1   
    42    28    41 1   
    43    28    42 1   
@<TRIPOS>SUBSTRUCTURE
     1 46Y         1 TEMP              0 ****  ****    0 ROOT
