@<TRIPOS>MOLECULE
46Y
   42    43     1     0     0
SMALL
abcg2


@<TRIPOS>ATOM
      1 C4          -2.3150    -0.0920    -0.1030 ca         1 46Y       0.675900
      2 C5          -3.3640     0.8580    -0.2430 ca         1 46Y      -0.181000
      3 C6          -3.0600     2.2110    -0.5260 cg         1 46Y       0.339000
      4 N2          -1.0280     0.2710    -0.2270 nu         1 46Y      -0.929100
      5 C14         -4.0480    -3.2090     0.6150 c3         1 46Y      -0.151400
      6 C1          -4.6890     0.4460    -0.0900 ca         1 46Y       0.056700
      7 C           -5.8150     1.4190    -0.2280 c3         1 46Y      -0.062800
      8 N           -2.5760    -1.3680     0.1680 nb         1 46Y      -0.772000
      9 C3          -3.8360    -1.7590     0.3190 ca         1 46Y       0.439300
     10 C2          -4.9180    -0.8910     0.1990 ca         1 46Y      -0.242000
     11 H4          -0.8180     1.2040    -0.5410 hn         1 46Y       0.501000
     12 H6          -3.4380    -3.5210     1.4640 hc         1 46Y       0.054033
     13 H7          -5.0900    -3.4300     0.8350 hc         1 46Y       0.054033
     14 H8          -3.7440    -3.8180    -0.2390 hc         1 46Y       0.054033
     15 H9          -5.7980     1.9060    -1.2040 hc         1 46Y       0.055033
     16 H10         -6.7770     0.9250    -0.1130 hc         1 46Y       0.055033
     17 H11         -5.7450     2.2050     0.5250 hc         1 46Y       0.055033
     18 H12         -5.9270    -1.2550     0.3320 ha         1 46Y       0.126000
     19 N1          -2.7900     3.3100    -0.7560 n1         1 46Y      -0.479000
     20 C7           0.0760    -0.6650    -0.1750 c3         1 46Y       0.231800
     21 C8           1.3940     0.0930    -0.1480 c3         1 46Y      -0.100400
     22 C9           2.5750    -0.8670    -0.1220 c3         1 46Y       0.173800
     23 N3           3.8560    -0.2010    -0.2490 n3         1 46Y      -0.717600
     24 C11          4.9210    -1.1510    -0.5130 c6         1 46Y       0.126300
     25 C12          6.2370    -0.4230    -0.7090 c6         1 46Y       0.153100
     26 O1           6.5630     0.3670     0.4140 os         1 46Y      -0.449000
     27 C15          5.5340     1.2910     0.6910 c6         1 46Y       0.153100
     28 C16          4.1990     0.6030     0.9110 c6         1 46Y       0.126300
     29 H1          -0.0170    -1.2860     0.7180 h1         1 46Y       0.053700
     30 H2           0.0480    -1.3430    -1.0360 h1         1 46Y       0.053700
     31 H3           1.4760     0.7320    -1.0330 hc         1 46Y       0.054200
     32 H5           1.4030     0.7500     0.7250 hc         1 46Y       0.054200
     33 H13          2.5270    -1.4860     0.7920 h1         1 46Y       0.033700
     34 H14          2.4780    -1.5580    -0.9650 h1         1 46Y       0.033700
     35 H15          5.0280    -1.8860     0.3040 h1         1 46Y       0.040950
     36 H16          4.6900    -1.7110    -1.4220 h1         1 46Y       0.040950
     37 H17          7.0460    -1.1420    -0.8470 h1         1 46Y       0.051450
     38 H18          6.1800     0.1990    -1.6140 h1         1 46Y       0.051450
     39 H19          5.8220     1.8420     1.5880 h1         1 46Y       0.051450
     40 H20          5.4330     2.0120    -0.1320 h1         1 46Y       0.051450
     41 H21          3.4450     1.3760     1.0690 h1         1 46Y       0.040950
     42 H22          4.2370    -0.0070     1.8310 h1         1 46Y       0.040950
@<TRIPOS>BOND
     1     1     2 ar  
     2     1     4 1   
     3     1     8 ar  
     4     2     3 1   
     5     2     6 ar  
     6     3    19 3   
     7     4    11 1   
     8     4    20 1   
     9     5     9 1   
    10     5    12 1   
    11     5    13 1   
    12     5    14 1   
    13     6     7 1   
    14     6    10 ar  
    15     7    15 1   
    16     7    16 1   
    17     7    17 1   
    18     8     9 ar  
    19     9    10 ar  
    20    10    18 1   
    21    20    21 1   
    22    20    29 1   
    23    20    30 1   
    24    21    22 1   
    25    21    31 1   
    26    21    32 1   
    27    22    23 1   
    28    22    33 1   
    29    22    34 1   
    30    23    24 1   
    31    23    28 1   
    32    24    25 1   
    33    24    35 1   
    34    24    36 1   
    35    25    26 1   
    36    25    37 1   
    37    25    38 1   
    38    26    27 1   
    39    27    28 1   
    40    27    39 1   
    41    27    40 1   
    42    28    41 1   
    43    28    42 1   
@<TRIPOS>SUBSTRUCTURE
     1 46Y         1 TEMP              0 ****  ****    0 ROOT
