@<TRIPOS>MOLECULE
470
   64    67     1     0     0
SMALL
No Charge or Current Charge


@<TRIPOS>ATOM
      1 C1           6.5580    -0.6210     0.1240 c3         1 470      -0.089100
      2 N1          -2.8680     0.6430    -0.9470 nu         1 470      -0.961200
      3 C2           5.1950    -0.2160    -0.4680 c3         1 470      -0.072400
      4 C3           3.9970    -0.7470     0.3470 c3         1 470      -0.045200
      5 C4           2.6690    -0.3110    -0.2450 c2         1 470      -0.189200
      6 C5           1.7750     0.5740     0.2580 ce         1 470      -0.081200
      7 C6           1.9490     1.3000     1.5870 c3         1 470      -0.035200
      8 C7           2.9270     2.4930     1.5110 c3         1 470      -0.074400
      9 C8           3.0630     3.2480     2.8470 c3         1 470      -0.090100
     10 C9           0.5240     0.8460    -0.4640 ce         1 470      -0.058200
     11 C10         -0.4200    -0.0690    -0.8370 cf         1 470      -0.087400
     12 C11         -0.4980    -1.5130    -0.4790 ca         1 470      -0.031800
     13 C12         -0.0880    -1.9270     0.8080 ca         1 470      -0.095500
     14 C13         -0.1650    -3.2750     1.1960 ca         1 470      -0.112500
     15 C14         -0.6580    -4.2360     0.3000 ca         1 470      -0.108000
     16 C15         -1.0760    -3.8420    -0.9800 ca         1 470      -0.112500
     17 C16         -1.0000    -2.4920    -1.3650 ca         1 470      -0.095500
     18 C17         -1.5250     0.6990    -1.6180 c5         1 470       0.286400
     19 C18         -1.7440     0.2340    -3.0990 c5         1 470      -0.081400
     20 C19         -1.9350     1.5720    -3.8610 c5         1 470      -0.077400
     21 C20         -0.7920     2.3990    -3.2310 c5         1 470      -0.066400
     22 C21         -1.1020     2.1940    -1.7150 c5         1 470      -0.078700
     23 C22          0.2490     2.2800    -0.9330 c5         1 470      -0.040200
     24 C23         -2.8200     0.3670     0.4240 ca         1 470       0.339000
     25 C24         -3.3530    -0.8450     0.8920 ca         1 470      -0.191000
     26 C25         -3.3200    -1.1550     2.2630 ca         1 470      -0.068000
     27 C26         -2.7670    -0.2400     3.1730 ca         1 470      -0.169000
     28 C27         -2.2590     0.9870     2.7170 ca         1 470      -0.068000
     29 C28         -2.2950     1.2920     1.3450 ca         1 470      -0.191000
     30 H1           7.3750    -0.2240    -0.4900 hc         1 470       0.032033
     31 H1A          6.6710    -0.2270     1.1420 hc         1 470       0.032033
     32 H1B          6.6560    -1.7130     0.1620 hc         1 470       0.032033
     33 H2           5.1410     0.8780    -0.5230 hc         1 470       0.038700
     34 H2A          5.1260    -0.5900    -1.4970 hc         1 470       0.038700
     35 H3           4.0410    -1.8430     0.3700 hc         1 470       0.047200
     36 H3A          4.0990    -0.4190     1.3870 hc         1 470       0.047200
     37 H4           2.4470    -0.7990    -1.1960 ha         1 470       0.174000
     38 H6           0.9770     1.6670     1.9410 hc         1 470       0.044700
     39 H6A          2.2900     0.6020     2.3600 hc         1 470       0.044700
     40 H7           3.9170     2.1360     1.2040 hc         1 470       0.040200
     41 H7A          2.5890     3.1930     0.7390 hc         1 470       0.040200
     42 H8           2.0940     3.6530     3.1640 hc         1 470       0.032033
     43 H8A          3.4350     2.5810     3.6340 hc         1 470       0.032033
     44 H8B          3.7670     4.0830     2.7440 hc         1 470       0.032033
     45 H12          0.2690    -1.1960     1.5280 ha         1 470       0.112500
     46 H13          0.1510    -3.5720     2.1930 ha         1 470       0.111000
     47 H14         -0.7190    -5.2800     0.5980 ha         1 470       0.111000
     48 H15         -1.4600    -4.5840    -1.6760 ha         1 470       0.111000
     49 H16         -1.3250    -2.2290    -2.3640 ha         1 470       0.112500
     50 H18         -0.8550    -0.2830    -3.4790 hc         1 470       0.051200
     51 H18A        -2.5920    -0.4480    -3.2310 hc         1 470       0.051200
     52 H19         -1.8220     1.4560    -4.9450 hc         1 470       0.046700
     53 H19A        -2.9200     2.0190    -3.6740 hc         1 470       0.046700
     54 H20          0.1870     2.0030    -3.5310 hc         1 470       0.043700
     55 H20A        -0.8250     3.4540    -3.5250 hc         1 470       0.043700
     56 H21         -1.8600     2.8970    -1.3510 hc         1 470       0.073700
     57 H22          0.1490     2.9520    -0.0730 hc         1 470       0.055700
     58 H22A         1.0810     2.6720    -1.5290 hc         1 470       0.055700
     59 H24         -3.7740    -1.5600     0.1910 ha         1 470       0.110000
     60 H25         -3.7190    -2.1040     2.6170 ha         1 470       0.104000
     61 H26         -2.7390    -0.4790     4.2340 ha         1 470       0.110000
     62 H27         -1.8410     1.7010     3.4230 ha         1 470       0.104000
     63 H28         -1.9150     2.2470     1.0030 ha         1 470       0.110000
     64 HN1         -3.5870     0.1050    -1.4250 hn         1 470       0.476000
@<TRIPOS>BOND
     1     1     3 1   
     2     1    30 1   
     3     1    31 1   
     4     1    32 1   
     5     2    18 1   
     6     2    24 1   
     7     2    64 1   
     8     3     4 1   
     9     3    33 1   
    10     3    34 1   
    11     4     5 1   
    12     4    35 1   
    13     4    36 1   
    14     5     6 2   
    15     5    37 1   
    16     6     7 1   
    17     6    10 1   
    18     7     8 1   
    19     7    38 1   
    20     7    39 1   
    21     8     9 1   
    22     8    40 1   
    23     8    41 1   
    24     9    42 1   
    25     9    43 1   
    26     9    44 1   
    27    10    11 2   
    28    10    23 1   
    29    11    12 1   
    30    11    18 1   
    31    12    13 ar  
    32    12    17 ar  
    33    13    14 ar  
    34    13    45 1   
    35    14    15 ar  
    36    14    46 1   
    37    15    16 ar  
    38    15    47 1   
    39    16    17 ar  
    40    16    48 1   
    41    17    49 1   
    42    18    19 1   
    43    18    22 1   
    44    19    20 1   
    45    19    50 1   
    46    19    51 1   
    47    20    21 1   
    48    20    52 1   
    49    20    53 1   
    50    21    22 1   
    51    21    54 1   
    52    21    55 1   
    53    22    23 1   
    54    22    56 1   
    55    23    57 1   
    56    23    58 1   
    57    24    25 ar  
    58    24    29 ar  
    59    25    26 ar  
    60    25    59 1   
    61    26    27 ar  
    62    26    60 1   
    63    27    28 ar  
    64    27    61 1   
    65    28    29 ar  
    66    28    62 1   
    67    29    63 1   
@<TRIPOS>SUBSTRUCTURE
     1 470         1 TEMP              0 ****  ****    0 ROOT
