@<TRIPOS>MOLECULE
470
   64    67     1     0     0
SMALL
bcc


@<TRIPOS>ATOM
      1 C1           6.6890    -0.8530    -0.1800 c3         1 470      -0.089100
      2 N1          -2.6620     0.0860    -1.0160 nu         1 470      -0.767600
      3 C2           5.3140    -0.4190    -0.6650 c3         1 470      -0.072400
      4 C3           4.2110    -0.7040     0.3580 c3         1 470      -0.045200
      5 C4           2.8570    -0.3420    -0.1590 c2         1 470      -0.139200
      6 C5           2.0300     0.5920     0.3210 ce         1 470      -0.081200
      7 C6           2.3670     1.4750     1.5000 c3         1 470      -0.035200
      8 C7           3.2720     2.6560     1.1430 c3         1 470      -0.074400
      9 C8           3.5590     3.5500     2.3410 c3         1 470      -0.090100
     10 C9           0.7300     0.8250    -0.3290 ce         1 470      -0.058200
     11 C10         -0.2000    -0.0900    -0.6320 cf         1 470      -0.087400
     12 C11         -0.2110    -1.5080    -0.2420 ca         1 470      -0.031800
     13 C12         -0.0010    -1.8660     1.0910 ca         1 470      -0.113500
     14 C13         -0.0300    -3.1930     1.4870 ca         1 470      -0.130500
     15 C14         -0.2810    -4.1960     0.5570 ca         1 470      -0.126000
     16 C15         -0.5060    -3.8530    -0.7690 ca         1 470      -0.130500
     17 C16         -0.4750    -2.5210    -1.1620 ca         1 470      -0.113500
     18 C17         -1.3440     0.5260    -1.4170 c5         1 470       0.286400
     19 C18         -1.2340     0.3330    -2.9410 c5         1 470      -0.081400
     20 C19         -1.9380     1.5540    -3.5220 c5         1 470      -0.077400
     21 C20         -1.4580     2.7000    -2.6240 c5         1 470      -0.066400
     22 C21         -1.1290     2.0610    -1.2600 c5         1 470      -0.078700
     23 C22          0.3240     2.2050    -0.7820 c5         1 470      -0.040200
     24 C23         -3.1480     0.0350     0.2650 ca         1 470       0.200600
     25 C24         -4.3810    -0.6030     0.4900 ca         1 470      -0.209000
     26 C25         -4.9370    -0.6630     1.7540 ca         1 470      -0.086000
     27 C26         -4.2910    -0.0910     2.8460 ca         1 470      -0.187000
     28 C27         -3.0720     0.5370     2.6340 ca         1 470      -0.086000
     29 C28         -2.5010     0.6060     1.3710 ca         1 470      -0.209000
     30 H1           7.4580    -0.6460    -0.9260 hc         1 470       0.032033
     31 H1A          6.9690    -0.3270     0.7340 hc         1 470       0.032033
     32 H1B          6.7150    -1.9230     0.0340 hc         1 470       0.032033
     33 H2           5.3220     0.6500    -0.8930 hc         1 470       0.038700
     34 H2A          5.0730    -0.9270    -1.6040 hc         1 470       0.038700
     35 H3           4.2230    -1.7750     0.5910 hc         1 470       0.047200
     36 H3A          4.4410    -0.1850     1.2910 hc         1 470       0.047200
     37 H4           2.5340    -0.9000    -1.0340 ha         1 470       0.124000
     38 H6           1.4430     1.8560     1.9450 hc         1 470       0.044700
     39 H6A          2.8480     0.8800     2.2820 hc         1 470       0.044700
     40 H7           4.2110     2.2790     0.7300 hc         1 470       0.040200
     41 H7A          2.8080     3.2460     0.3480 hc         1 470       0.040200
     42 H8           2.6380     3.9600     2.7590 hc         1 470       0.032033
     43 H8A          4.0630     2.9950     3.1340 hc         1 470       0.032033
     44 H8B          4.2000     4.3890     2.0670 hc         1 470       0.032033
     45 H12          0.1710    -1.0900     1.8260 ha         1 470       0.130500
     46 H13          0.1350    -3.4470     2.5270 ha         1 470       0.129000
     47 H14         -0.3050    -5.2340     0.8640 ha         1 470       0.129000
     48 H15         -0.7030    -4.6240    -1.5030 ha         1 470       0.129000
     49 H16         -0.6410    -2.2780    -2.2040 ha         1 470       0.130500
     50 H18         -0.1770     0.3470    -3.2190 hc         1 470       0.051200
     51 H18A        -1.6460    -0.6170    -3.2900 hc         1 470       0.051200
     52 H19         -1.6980     1.7140    -4.5740 hc         1 470       0.046700
     53 H19A        -3.0220     1.4350    -3.4550 hc         1 470       0.046700
     54 H20         -0.5640     3.1600    -3.0520 hc         1 470       0.043700
     55 H20A        -2.2040     3.4910    -2.5370 hc         1 470       0.043700
     56 H21         -1.7980     2.4480    -0.4900 hc         1 470       0.073700
     57 H22          0.4270     2.9460     0.0160 hc         1 470       0.055700
     58 H22A         0.9850     2.5430    -1.5890 hc         1 470       0.055700
     59 H24         -4.9020    -1.0570    -0.3460 ha         1 470       0.128000
     60 H25         -5.8870    -1.1650     1.8880 ha         1 470       0.122000
     61 H26         -4.7260    -0.1400     3.8350 ha         1 470       0.128000
     62 H27         -2.5440     0.9850     3.4670 ha         1 470       0.122000
     63 H28         -1.5420     1.0880     1.2600 ha         1 470       0.128000
     64 HN1         -3.1260    -0.5310    -1.6620 hn         1 470       0.420800
@<TRIPOS>BOND
     1     1     3 1   
     2     1    30 1   
     3     1    31 1   
     4     1    32 1   
     5     2    18 1   
     6     2    24 1   
     7     2    64 1   
     8     3     4 1   
     9     3    33 1   
    10     3    34 1   
    11     4     5 1   
    12     4    35 1   
    13     4    36 1   
    14     5     6 2   
    15     5    37 1   
    16     6     7 1   
    17     6    10 1   
    18     7     8 1   
    19     7    38 1   
    20     7    39 1   
    21     8     9 1   
    22     8    40 1   
    23     8    41 1   
    24     9    42 1   
    25     9    43 1   
    26     9    44 1   
    27    10    11 2   
    28    10    23 1   
    29    11    12 1   
    30    11    18 1   
    31    12    13 ar  
    32    12    17 ar  
    33    13    14 ar  
    34    13    45 1   
    35    14    15 ar  
    36    14    46 1   
    37    15    16 ar  
    38    15    47 1   
    39    16    17 ar  
    40    16    48 1   
    41    17    49 1   
    42    18    19 1   
    43    18    22 1   
    44    19    20 1   
    45    19    50 1   
    46    19    51 1   
    47    20    21 1   
    48    20    52 1   
    49    20    53 1   
    50    21    22 1   
    51    21    54 1   
    52    21    55 1   
    53    22    23 1   
    54    22    56 1   
    55    23    57 1   
    56    23    58 1   
    57    24    25 ar  
    58    24    29 ar  
    59    25    26 ar  
    60    25    59 1   
    61    26    27 ar  
    62    26    60 1   
    63    27    28 ar  
    64    27    61 1   
    65    28    29 ar  
    66    28    62 1   
    67    29    63 1   
@<TRIPOS>SUBSTRUCTURE
     1 470         1 TEMP              0 ****  ****    0 ROOT
