@<TRIPOS>MOLECULE
471
   81    84     1     0     0
SMALL
No Charge or Current Charge


@<TRIPOS>ATOM
      1 N            3.0740     1.6880     1.8390 nu         1 471      -0.804200
      2 CA           2.8680     1.6350     3.3020 c3         1 471       0.202500
      3 CB           2.6240     0.1630     3.7270 c3         1 471      -0.039100
      4 CG           1.5600    -0.5630     2.8980 ca         1 471      -0.132300
      5 CD1          1.8800    -1.7630     2.2340 ca         1 471      -0.067500
      6 CD2          0.2590    -0.0350     2.7780 ca         1 471      -0.067500
      7 CE1          0.9140    -2.4210     1.4550 ca         1 471      -0.172000
      8 CE2         -0.7060    -0.6910     1.9930 ca         1 471      -0.172000
      9 CZ          -0.3780    -1.8910     1.3270 ca         1 471       0.150100
     10 OH          -1.2810    -2.5780     0.5430 os         1 471      -0.351100
     11 C1A          2.2220     2.2760     0.9270 c2         1 471       0.266800
     12 C1F          2.0530     1.6590    -0.2530 ce         1 471      -0.512200
     13 C1B          1.5080     3.5410     1.3510 c3         1 471      -0.091900
     14 C1H          1.7730    -0.6080    -1.4880 ca         1 471      -0.113600
     15 C1I          2.3640    -1.7600    -2.0500 ca         1 471      -0.079500
     16 C1J          1.6080    -2.6500    -2.8310 ca         1 471      -0.076000
     17 C1K          0.2400    -2.4120    -3.0720 ca         1 471      -0.184300
     18 C1N         -0.5670    -3.4000    -3.9230 c3         1 471       0.355300
     19 F1Q         -0.8200    -4.5420    -3.2450 f          1 471      -0.114333
     20 F1P         -1.7620    -2.9030    -4.3180 f          1 471      -0.114333
     21 F1O          0.0960    -3.7500    -5.0490 f          1 471      -0.114333
     22 C1L         -0.3600    -1.2720    -2.4980 ca         1 471      -0.076000
     23 C1M          0.3950    -0.3830    -1.7130 ca         1 471      -0.079500
     24 C1G          2.6150     0.3320    -0.6470 c          1 471       0.604900
     25 O1G          3.7020    -0.0290    -0.2060 o          1 471      -0.635100
     26 O3F         -6.8000    -2.2210    -1.4190 os         1 471      -0.257000
     27 C3G         -6.0640    -1.4100    -2.2350 cc         1 471       0.508500
     28 N3H         -4.7510    -1.5600    -2.1250 nd         1 471      -0.680000
     29 C3C         -4.6150    -2.5410    -1.1680 cd         1 471       0.234300
     30 C3D         -5.8620    -2.9340    -0.7480 cc         1 471       0.121300
     31 C3E         -6.2980    -3.9520     0.2690 c3         1 471      -0.118400
     32 C3I         -6.7640    -0.4750    -3.1270 ca         1 471      -0.137500
     33 C3N         -8.1760    -0.3950    -3.1320 ca         1 471      -0.072500
     34 C3M         -8.8390     0.5050    -3.9850 ca         1 471      -0.119000
     35 C3L         -8.1020     1.3370    -4.8440 ca         1 471      -0.091000
     36 C3K         -6.7000     1.2680    -4.8480 ca         1 471      -0.119000
     37 C3J         -6.0340     0.3690    -3.9960 ca         1 471      -0.072500
     38 C3A         -2.5800    -2.0480     0.2350 c3         1 471       0.164600
     39 C3B         -3.2690    -3.0370    -0.7190 c3         1 471      -0.095700
     40 C4A          4.0810     2.2500     4.0550 c3         1 471       0.095000
     41 N4B          4.2900     3.6770     3.7720 ns         1 471      -0.503900
     42 C4C          3.5350     4.6960     4.3030 c          1 471       0.595100
     43 O4C          2.6300     4.4910     5.0990 o          1 471      -0.611100
     44 C4D          3.8830     6.0980     3.7910 c3         1 471      -0.156400
     45 C4E          4.6250     6.9290     4.8600 c3         1 471      -0.080100
     46 HN           3.5620     0.8840     1.4290 hn         1 471       0.529000
     47 HCA          1.9770     2.2110     3.5860 h1         1 471       0.083700
     48 HB1          3.5760    -0.3800     3.6690 hc         1 471       0.056700
     49 HB2          2.3360     0.1470     4.7850 hc         1 471       0.056700
     50 HCD1         2.8800    -2.1840     2.3120 ha         1 471       0.117000
     51 HCD2        -0.0060     0.8890     3.2870 ha         1 471       0.117000
     52 HCE1         1.1700    -3.3430     0.9390 ha         1 471       0.126000
     53 HCE2        -1.6970    -0.2560     1.9170 ha         1 471       0.126000
     54 HC1F         1.3320     2.0760    -0.9490 ha         1 471       0.193000
     55 H1B1         1.0890     4.0650     0.4850 hc         1 471       0.063033
     56 H1B2         0.6800     3.3210     2.0330 hc         1 471       0.063033
     57 HIB3         2.1900     4.2380     1.8490 hc         1 471       0.063033
     58 HC1I         3.4190    -1.9690    -1.8860 ha         1 471       0.130500
     59 HC1J         2.0920    -3.5300    -3.2510 ha         1 471       0.129000
     60 HC1L        -1.4190    -1.0680    -2.6480 ha         1 471       0.129000
     61 HC1M        -0.1140     0.4670    -1.2680 ha         1 471       0.130500
     62 H3E1        -6.0530    -4.9660    -0.0700 hc         1 471       0.058700
     63 H3E2        -5.7950    -3.7830     1.2280 hc         1 471       0.058700
     64 H3E3        -7.3800    -3.9040     0.4400 hc         1 471       0.058700
     65 HC3N        -8.7690    -1.0300    -2.4750 ha         1 471       0.130500
     66 HC3M        -9.9250     0.5570    -3.9810 ha         1 471       0.117500
     67 HC3L        -8.6160     2.0330    -5.5030 ha         1 471       0.116000
     68 HC3K        -6.1270     1.9110    -5.5120 ha         1 471       0.117500
     69 HC3J        -4.9470     0.3300    -4.0130 ha         1 471       0.130500
     70 H3A1        -3.1830    -1.9330     1.1450 h1         1 471       0.044200
     71 H3A2        -2.4900    -1.0690    -0.2550 h1         1 471       0.044200
     72 H3B1        -2.6280    -3.1990    -1.5920 hc         1 471       0.066700
     73 H3B2        -3.3700    -4.0070    -0.2190 hc         1 471       0.066700
     74 H4A1         4.9930     1.7030     3.7820 h1         1 471       0.062200
     75 H4A2         3.9330     2.1260     5.1360 h1         1 471       0.062200
     76 HN4B         4.9960     3.9350     3.0930 hn         1 471       0.321500
     77 H4D1         2.9540     6.6210     3.5340 hc         1 471       0.056700
     78 H4D2         4.5250     6.0280     2.9050 hc         1 471       0.056700
     79 H4E1         4.0060     7.0500     5.7580 hc         1 471       0.043367
     80 H4E2         5.5630     6.4400     5.1500 hc         1 471       0.043367
     81 H4E3         4.8640     7.9270     4.4730 hc         1 471       0.043367
@<TRIPOS>BOND
     1     1     2 1   
     2     1    11 1   
     3     1    46 1   
     4     2     3 1   
     5     2    40 1   
     6     2    47 1   
     7     3     4 1   
     8     3    48 1   
     9     3    49 1   
    10     4     5 ar  
    11     4     6 ar  
    12     5     7 ar  
    13     5    50 1   
    14     6     8 ar  
    15     6    51 1   
    16     7     9 ar  
    17     7    52 1   
    18     8     9 ar  
    19     8    53 1   
    20     9    10 1   
    21    10    38 1   
    22    11    12 2   
    23    11    13 1   
    24    12    24 1   
    25    12    54 1   
    26    13    55 1   
    27    13    56 1   
    28    13    57 1   
    29    14    15 ar  
    30    14    23 ar  
    31    14    24 1   
    32    15    16 ar  
    33    15    58 1   
    34    16    17 ar  
    35    16    59 1   
    36    17    18 1   
    37    17    22 ar  
    38    18    19 1   
    39    18    20 1   
    40    18    21 1   
    41    22    23 ar  
    42    22    60 1   
    43    23    61 1   
    44    24    25 2   
    45    26    27 1   
    46    26    30 1   
    47    27    28 2   
    48    27    32 1   
    49    28    29 1   
    50    29    30 2   
    51    29    39 1   
    52    30    31 1   
    53    31    62 1   
    54    31    63 1   
    55    31    64 1   
    56    32    33 ar  
    57    32    37 ar  
    58    33    34 ar  
    59    33    65 1   
    60    34    35 ar  
    61    34    66 1   
    62    35    36 ar  
    63    35    67 1   
    64    36    37 ar  
    65    36    68 1   
    66    37    69 1   
    67    38    39 1   
    68    38    70 1   
    69    38    71 1   
    70    39    72 1   
    71    39    73 1   
    72    40    41 1   
    73    40    74 1   
    74    40    75 1   
    75    41    42 1   
    76    41    76 1   
    77    42    43 2   
    78    42    44 1   
    79    44    45 1   
    80    44    77 1   
    81    44    78 1   
    82    45    79 1   
    83    45    80 1   
    84    45    81 1   
@<TRIPOS>SUBSTRUCTURE
     1 471         1 TEMP              0 ****  ****    0 ROOT
