@<TRIPOS>MOLECULE
471
   81    84     1     0     0
SMALL
bcc


@<TRIPOS>ATOM
      1 N            2.5680     0.7920     2.0420 nu         1 471      -0.749000
      2 CA           1.9300     1.3550     3.2080 c3         1 471       0.202500
      3 CB           1.1790     0.2710     3.9950 c3         1 471      -0.039100
      4 CG           0.1220    -0.3800     3.1500 ca         1 471      -0.132300
      5 CD1          0.4200    -1.4680     2.3290 ca         1 471      -0.085500
      6 CD2         -1.1630     0.1410     3.0890 ca         1 471      -0.085500
      7 CE1         -0.5250    -2.0060     1.4760 ca         1 471      -0.190000
      8 CE2         -2.1300    -0.3860     2.2390 ca         1 471      -0.190000
      9 CZ          -1.8090    -1.4630     1.4180 ca         1 471       0.150100
     10 OH          -2.6650    -2.0420     0.5500 os         1 471      -0.327900
     11 C1A          2.1940     0.9180     0.7730 c2         1 471       0.266800
     12 C1F          2.8040     0.1990    -0.2460 ce         1 471      -0.462200
     13 C1B          1.0740     1.8510     0.4340 c3         1 471      -0.091900
     14 C1H          4.3430    -1.5280    -1.2110 ca         1 471      -0.113600
     15 C1I          5.5900    -2.1390    -1.1140 ca         1 471      -0.097500
     16 C1J          6.1220    -2.8510    -2.1770 ca         1 471      -0.094000
     17 C1K          5.3990    -2.9750    -3.3560 ca         1 471      -0.184300
     18 C1N          5.9280    -3.7520    -4.5190 c3         1 471       0.719200
     19 F1Q          5.2060    -4.8590    -4.7430 f          1 471      -0.235633
     20 F1P          5.8850    -3.0360    -5.6520 f          1 471      -0.235633
     21 F1O          7.1950    -4.1400    -4.3490 f          1 471      -0.235633
     22 C1L          4.1430    -2.3850    -3.4610 ca         1 471      -0.094000
     23 C1M          3.6250    -1.6670    -2.3990 ca         1 471      -0.097500
     24 C1G          3.8170    -0.7690    -0.0280 c          1 471       0.604900
     25 O1G          4.3070    -1.0250     1.0860 o          1 471      -0.635100
     26 O3F         -8.1890    -1.3890    -1.0590 os         1 471      -0.345800
     27 C3G         -7.5060    -0.3410    -1.5380 cc         1 471       0.552900
     28 N3H         -6.2280    -0.5020    -1.4790 nd         1 471      -0.680000
     29 C3C         -6.0430    -1.7500    -0.9190 cd         1 471       0.234300
     30 C3D         -7.2560    -2.2930    -0.6570 cc         1 471       0.165700
     31 C3E         -7.7210    -3.5710    -0.0770 c3         1 471      -0.118400
     32 C3I         -8.2430     0.8090    -2.0420 ca         1 471      -0.137500
     33 C3N         -9.6380     0.8350    -2.0530 ca         1 471      -0.090500
     34 C3M        -10.3080     1.9490    -2.5340 ca         1 471      -0.137000
     35 C3L         -9.5980     3.0450    -3.0070 ca         1 471      -0.109000
     36 C3K         -8.2090     3.0220    -2.9990 ca         1 471      -0.137000
     37 C3J         -7.5330     1.9120    -2.5190 ca         1 471      -0.090500
     38 C3A         -3.9590    -1.4890     0.3980 c3         1 471       0.141400
     39 C3B         -4.6840    -2.2990    -0.6650 c3         1 471      -0.095700
     40 C4A          2.9690     2.0560     4.0850 c3         1 471       0.095000
     41 N4B          3.6870     3.0930     3.3880 ns         1 471      -0.570900
     42 C4C          3.1660     4.3060     3.1350 c          1 471       0.662100
     43 O4C          2.0520     4.6360     3.5220 o          1 471      -0.611100
     44 C4D          4.0450     5.2420     2.3340 c3         1 471      -0.156400
     45 C4E          4.1150     6.6320     2.9520 c3         1 471      -0.080100
     46 HN           3.3140     0.1130     2.1860 hn         1 471       0.473800
     47 HCA          1.2040     2.1010     2.8890 h1         1 471       0.083700
     48 HB1          1.8910    -0.4720     4.3660 hc         1 471       0.056700
     49 HB2          0.7270     0.7390     4.8730 hc         1 471       0.056700
     50 HCD1         1.4150    -1.8980     2.3450 ha         1 471       0.135000
     51 HCD2        -1.4280     0.9870     3.7140 ha         1 471       0.135000
     52 HCE1        -0.2730    -2.8480     0.8430 ha         1 471       0.144000
     53 HCE2        -3.1170     0.0560     2.2330 ha         1 471       0.144000
     54 HC1F         2.4620     0.3970    -1.2500 ha         1 471       0.143000
     55 H1B1         0.9410     1.9080    -0.6430 hc         1 471       0.063033
     56 H1B2         0.1360     1.5050     0.8720 hc         1 471       0.063033
     57 HIB3         1.2580     2.8590     0.8070 hc         1 471       0.063033
     58 HC1I         6.1630    -2.0550    -0.2000 ha         1 471       0.148500
     59 HC1J         7.0980    -3.3030    -2.0690 ha         1 471       0.147000
     60 HC1L         3.5570    -2.4780    -4.3670 ha         1 471       0.147000
     61 HC1M         2.6410    -1.2320    -2.5060 ha         1 471       0.148500
     62 H3E1        -8.2930    -4.1560    -0.7980 hc         1 471       0.058700
     63 H3E2        -6.8680    -4.1690     0.2370 hc         1 471       0.058700
     64 H3E3        -8.3530    -3.4080     0.7970 hc         1 471       0.058700
     65 HC3N       -10.2080    -0.0090    -1.6870 ha         1 471       0.148500
     66 HC3M       -11.3900     1.9600    -2.5380 ha         1 471       0.135500
     67 HC3L       -10.1240     3.9130    -3.3820 ha         1 471       0.134000
     68 HC3K        -7.6500     3.8720    -3.3670 ha         1 471       0.135500
     69 HC3J        -6.4510     1.8970    -2.5130 ha         1 471       0.148500
     70 H3A1        -4.5140    -1.5290     1.3430 h1         1 471       0.044200
     71 H3A2        -3.8960    -0.4390     0.0940 h1         1 471       0.044200
     72 H3B1        -4.1030    -2.2850    -1.5910 hc         1 471       0.066700
     73 H3B2        -4.7590    -3.3410    -0.3480 hc         1 471       0.066700
     74 H4A1         3.6990     1.3350     4.4560 h1         1 471       0.062200
     75 H4A2         2.4640     2.4750     4.9570 h1         1 471       0.062200
     76 HN4B         4.5940     2.8680     3.0140 hn         1 471       0.321500
     77 H4D1         3.6160     5.3090     1.3290 hc         1 471       0.056700
     78 H4D2         5.0480     4.8310     2.2120 hc         1 471       0.056700
     79 H4E1         3.1250     7.0750     3.0450 hc         1 471       0.043367
     80 H4E2         4.5640     6.6010     3.9450 hc         1 471       0.043367
     81 H4E3         4.7210     7.2910     2.3330 hc         1 471       0.043367
@<TRIPOS>BOND
     1     1     2 1   
     2     1    11 1   
     3     1    46 1   
     4     2     3 1   
     5     2    40 1   
     6     2    47 1   
     7     3     4 1   
     8     3    48 1   
     9     3    49 1   
    10     4     5 ar  
    11     4     6 ar  
    12     5     7 ar  
    13     5    50 1   
    14     6     8 ar  
    15     6    51 1   
    16     7     9 ar  
    17     7    52 1   
    18     8     9 ar  
    19     8    53 1   
    20     9    10 1   
    21    10    38 1   
    22    11    12 2   
    23    11    13 1   
    24    12    24 1   
    25    12    54 1   
    26    13    55 1   
    27    13    56 1   
    28    13    57 1   
    29    14    15 ar  
    30    14    23 ar  
    31    14    24 1   
    32    15    16 ar  
    33    15    58 1   
    34    16    17 ar  
    35    16    59 1   
    36    17    18 1   
    37    17    22 ar  
    38    18    19 1   
    39    18    20 1   
    40    18    21 1   
    41    22    23 ar  
    42    22    60 1   
    43    23    61 1   
    44    24    25 2   
    45    26    27 1   
    46    26    30 1   
    47    27    28 2   
    48    27    32 1   
    49    28    29 1   
    50    29    30 2   
    51    29    39 1   
    52    30    31 1   
    53    31    62 1   
    54    31    63 1   
    55    31    64 1   
    56    32    33 ar  
    57    32    37 ar  
    58    33    34 ar  
    59    33    65 1   
    60    34    35 ar  
    61    34    66 1   
    62    35    36 ar  
    63    35    67 1   
    64    36    37 ar  
    65    36    68 1   
    66    37    69 1   
    67    38    39 1   
    68    38    70 1   
    69    38    71 1   
    70    39    72 1   
    71    39    73 1   
    72    40    41 1   
    73    40    74 1   
    74    40    75 1   
    75    41    42 1   
    76    41    76 1   
    77    42    43 2   
    78    42    44 1   
    79    44    45 1   
    80    44    77 1   
    81    44    78 1   
    82    45    79 1   
    83    45    80 1   
    84    45    81 1   
@<TRIPOS>SUBSTRUCTURE
     1 471         1 TEMP              0 ****  ****    0 ROOT
