@<TRIPOS>MOLECULE
472
   43    46     1     0     0
SMALL
abcg2


@<TRIPOS>ATOM
      1 C1           2.7220     2.2420     2.6000 c3         1 472       0.094300
      2 N1           2.3790     1.5580     1.3750 n          1 472      -0.381300
      3 O1           0.9620    -0.0520     2.1880 o          1 472      -0.502000
      4 C2           1.5460     0.4880     1.2770 c          1 472       0.552000
      5 N2           2.4860     1.0450    -0.8190 n2         1 472      -0.703900
      6 C3           1.5580     0.1170    -0.2170 c5         1 472       0.161800
      7 N3           3.8070     2.8000    -0.0280 nv         1 472      -1.038200
      8 C4           2.9010     1.8220     0.1130 c2         1 472       0.682800
      9 N4           2.9140    -3.9740    -0.5110 nb         1 472      -0.661000
     10 C5           2.0330    -1.3250    -0.3310 ca         1 472      -0.039300
     11 N5          -4.7790    -0.4240     1.7710 nb         1 472      -0.664000
     12 C6           3.2940    -1.6310    -0.8210 ca         1 472      -0.137500
     13 C7           3.6820    -2.9620    -0.8910 ca         1 472       0.326900
     14 C8           1.7070    -3.6760    -0.0420 ca         1 472       0.326900
     15 C9           1.2220    -2.3840     0.0660 ca         1 472      -0.137500
     16 C10          0.1900     0.2550    -0.8820 ca         1 472      -0.069300
     17 C11          0.1600     0.3390    -2.2730 ca         1 472      -0.069000
     18 C12         -1.0480     0.4420    -2.9410 ca         1 472      -0.119000
     19 C13         -2.2430     0.4660    -2.2350 ca         1 472      -0.092000
     20 C14         -2.2330     0.3820    -0.8460 cp         1 472      -0.040000
     21 C15         -1.0070     0.2760    -0.1820 ca         1 472      -0.092000
     22 C16         -3.4930     0.4060    -0.0820 cp         1 472      -0.084000
     23 C17         -4.5610     1.2200    -0.4510 ca         1 472      -0.067000
     24 C18         -5.7230     1.2000     0.3010 ca         1 472      -0.165000
     25 C19         -5.7840     0.3630     1.4060 ca         1 472       0.334900
     26 C20         -3.6710    -0.3990     1.0440 ca         1 472       0.346900
     27 H1           3.7840     2.1390     2.8190 h1         1 472       0.052367
     28 H1A          2.4660     3.2990     2.5390 h1         1 472       0.052367
     29 H1B          2.1540     1.8010     3.4140 h1         1 472       0.052367
     30 HN3          4.0580     3.0590    -0.9670 hn         1 472       0.494500
     31 HN3A         3.8840     3.5340     0.6560 hn         1 472       0.494500
     32 H6           3.9670    -0.8520    -1.1500 ha         1 472       0.135500
     33 H7           4.6640    -3.2150    -1.2760 h4         1 472       0.018600
     34 H8           1.0860    -4.5110     0.2640 h4         1 472       0.018600
     35 H9           0.2230    -2.2240     0.4470 ha         1 472       0.135500
     36 H11          1.0850     0.3300    -2.8360 ha         1 472       0.134000
     37 H12         -1.0620     0.5000    -4.0210 ha         1 472       0.116000
     38 H13         -3.1810     0.5340    -2.7720 ha         1 472       0.115000
     39 H15         -1.0090     0.2290     0.8980 ha         1 472       0.131000
     40 H17         -4.4790     1.8780    -1.3080 ha         1 472       0.119000
     41 H18         -6.5660     1.8260     0.0430 ha         1 472       0.123000
     42 H19         -6.6780     0.3270     2.0180 h4         1 472       0.019100
     43 H20         -2.8790    -1.0720     1.3580 h4         1 472       0.024100
@<TRIPOS>BOND
     1     1     2 1   
     2     1    27 1   
     3     1    28 1   
     4     1    29 1   
     5     2     4 1   
     6     2     8 1   
     7     3     4 2   
     8     4     6 1   
     9     5     6 1   
    10     5     8 2   
    11     6    10 1   
    12     6    16 1   
    13     7     8 1   
    14     7    30 1   
    15     7    31 1   
    16     9    13 ar  
    17     9    14 ar  
    18    10    12 ar  
    19    10    15 ar  
    20    11    25 ar  
    21    11    26 ar  
    22    12    13 ar  
    23    12    32 1   
    24    13    33 1   
    25    14    15 ar  
    26    14    34 1   
    27    15    35 1   
    28    16    17 ar  
    29    16    21 ar  
    30    17    18 ar  
    31    17    36 1   
    32    18    19 ar  
    33    18    37 1   
    34    19    20 ar  
    35    19    38 1   
    36    20    21 ar  
    37    20    22 1   
    38    21    39 1   
    39    22    23 ar  
    40    22    26 ar  
    41    23    24 ar  
    42    23    40 1   
    43    24    25 ar  
    44    24    41 1   
    45    25    42 1   
    46    26    43 1   
@<TRIPOS>SUBSTRUCTURE
     1 472         1 TEMP              0 ****  ****    0 ROOT
