@<TRIPOS>MOLECULE
472
   43    46     1     0     0
SMALL
No Charge or Current Charge


@<TRIPOS>ATOM
      1 C1           2.3510     1.7820     2.9200 c3         1 472       0.094300
      2 N1           2.1320     1.2460     1.5580 n          1 472      -0.381300
      3 O1           1.0530    -0.7180     2.1730 o          1 472      -0.502000
      4 C2           1.5140     0.0380     1.3240 c          1 472       0.552000
      5 N2           2.2820     1.1740    -0.7020 n2         1 472      -0.703900
      6 C3           1.5670    -0.0760    -0.2390 c5         1 472       0.161800
      7 N3           3.1410     3.0030     0.4130 nv         1 472      -1.038200
      8 C4           2.5290     1.8070     0.3690 c2         1 472       0.682800
      9 N4           3.7130    -3.7960    -1.1670 nb         1 472      -0.661000
     10 C5           2.3380    -1.3710    -0.5750 ca         1 472      -0.039300
     11 N5          -4.6660     0.9880     2.1410 nb         1 472      -0.664000
     12 C6           3.6500    -1.3730    -1.1000 ca         1 472      -0.137500
     13 C7           4.2900    -2.5920    -1.3790 ca         1 472       0.326900
     14 C8           2.4590    -3.8060    -0.6630 ca         1 472       0.326900
     15 C9           1.7470    -2.6350    -0.3560 ca         1 472      -0.137500
     16 C10          0.1570    -0.1010    -0.8690 ca         1 472      -0.069300
     17 C11         -0.0010    -0.5410    -2.2010 ca         1 472      -0.069000
     18 C12         -1.2660    -0.5700    -2.8060 ca         1 472      -0.119000
     19 C13         -2.3970    -0.1470    -2.0940 ca         1 472      -0.092000
     20 C14         -2.2840     0.3210    -0.7630 cp         1 472      -0.040000
     21 C15         -0.9940     0.3410    -0.1720 ca         1 472      -0.092000
     22 C16         -3.4890     0.7820    -0.0020 cp         1 472      -0.084000
     23 C17         -4.5730     1.4270    -0.6480 ca         1 472      -0.067000
     24 C18         -5.6780     1.8380     0.1150 ca         1 472      -0.165000
     25 C19         -5.6850     1.6010     1.4980 ca         1 472       0.334900
     26 C20         -3.6000     0.5930     1.4030 ca         1 472       0.346900
     27 H1           3.3900     2.1200     3.0260 h1         1 472       0.052367
     28 H1A          1.6740     2.6270     3.0980 h1         1 472       0.052367
     29 H1B          2.1600     1.0100     3.6760 h1         1 472       0.052367
     30 HN3          3.1950     3.4220    -0.5070 hn         1 472       0.494500
     31 HN3A         2.7780     3.6240     1.1250 hn         1 472       0.494500
     32 H6           4.1830    -0.4480    -1.2970 ha         1 472       0.135500
     33 H7           5.3010    -2.6050    -1.7850 h4         1 472       0.018600
     34 H8           2.0100    -4.7850    -0.4980 h4         1 472       0.018600
     35 H9           0.7420    -2.7170     0.0490 ha         1 472       0.135500
     36 H11          0.8660    -0.8620    -2.7760 ha         1 472       0.134000
     37 H12         -1.3700    -0.9200    -3.8310 ha         1 472       0.116000
     38 H13         -3.3700    -0.1910    -2.5770 ha         1 472       0.115000
     39 H15         -0.8990     0.7280     0.8380 ha         1 472       0.131000
     40 H17         -4.5530     1.6180    -1.7180 ha         1 472       0.119000
     41 H18         -6.5210     2.3380    -0.3540 ha         1 472       0.123000
     42 H19         -6.5310     1.9110     2.1110 h4         1 472       0.019100
     43 H20         -2.8070     0.0920     1.9560 h4         1 472       0.024100
@<TRIPOS>BOND
     1     1     2 1   
     2     1    27 1   
     3     1    28 1   
     4     1    29 1   
     5     2     4 1   
     6     2     8 1   
     7     3     4 2   
     8     4     6 1   
     9     5     6 1   
    10     5     8 2   
    11     6    10 1   
    12     6    16 1   
    13     7     8 1   
    14     7    30 1   
    15     7    31 1   
    16     9    13 ar  
    17     9    14 ar  
    18    10    12 ar  
    19    10    15 ar  
    20    11    25 ar  
    21    11    26 ar  
    22    12    13 ar  
    23    12    32 1   
    24    13    33 1   
    25    14    15 ar  
    26    14    34 1   
    27    15    35 1   
    28    16    17 ar  
    29    16    21 ar  
    30    17    18 ar  
    31    17    36 1   
    32    18    19 ar  
    33    18    37 1   
    34    19    20 ar  
    35    19    38 1   
    36    20    21 ar  
    37    20    22 1   
    38    21    39 1   
    39    22    23 ar  
    40    22    26 ar  
    41    23    24 ar  
    42    23    40 1   
    43    24    25 ar  
    44    24    41 1   
    45    25    42 1   
    46    26    43 1   
@<TRIPOS>SUBSTRUCTURE
     1 472         1 TEMP              0 ****  ****    0 ROOT
