@<TRIPOS>MOLECULE
474
   62    65     1     0     0
SMALL
bcc


@<TRIPOS>ATOM
      1 C1          -1.3440     1.1810     0.0690 c3         1 474      -0.119700
      2 C2          -2.1930     0.8970    -1.1880 c3         1 474       0.108500
      3 C3          -3.6640     1.1610    -0.8440 c          1 474       0.627100
      4 N4          -4.5240     0.1330    -0.7950 n          1 474      -0.474800
      5 C5          -1.8130     0.2640     1.1880 c          1 474       0.659100
      6 N6          -1.7510     1.7320    -2.2860 n8         1 474      -0.881800
      7 O7          -4.0370     2.3090    -0.6260 o          1 474      -0.619100
      8 O8          -1.7170    -0.9560     1.0650 o          1 474      -0.625100
      9 N9          -2.3640     0.8020     2.2910 n          1 474      -0.469800
     10 C10         -2.8660    -0.1190     3.2980 c3         1 474       0.088800
     11 C14         -2.4390     2.2330     2.5460 c3         1 474       0.088800
     12 C18         -4.2340    -1.2700    -1.0470 c5         1 474       0.045000
     13 C19         -5.4630    -1.9510    -0.4720 c5         1 474       0.416600
     14 C20         -6.5960    -0.9850    -0.7150 c5         1 474      -0.150400
     15 C21         -5.9350     0.3670    -0.4760 c5         1 474       0.100000
     16 F28         -5.2960    -2.1450     0.8740 f          1 474      -0.227800
     17 C29          2.9570     0.1190     0.1790 c6         1 474      -0.010400
     18 C30          2.4710     1.4330     0.7960 c6         1 474      -0.067900
     19 C31          0.9720     1.3880     1.0770 c6         1 474      -0.074400
     20 C32          0.1720     1.0700    -0.1870 c6         1 474      -0.038700
     21 C33          0.6550    -0.2490    -0.7880 c6         1 474      -0.074400
     22 C34          2.1510    -0.1960    -1.0850 c6         1 474      -0.067900
     23 C48          7.1700     0.1240    -0.6180 cc         1 474      -0.016300
     24 C49          6.3630     1.1100    -1.2160 cc         1 474      -0.112000
     25 C50          5.0240     1.1000    -0.9520 cd         1 474      -0.096000
     26 C51          4.4360     0.1300    -0.0940 cd         1 474      -0.116300
     27 C52          5.2420    -0.8110     0.4710 cc         1 474      -0.043300
     28 N53          6.5720    -0.7930     0.1990 na         1 474       0.195000
     29 N54          7.4850    -1.6490     0.6740 nc         1 474      -0.603100
     30 C55          8.5970    -1.2060     0.1190 cd         1 474       0.529200
     31 N56          8.4730    -0.1350    -0.6740 nd         1 474      -0.400300
     32 F62         -5.6630    -3.1830    -1.0020 f          1 474      -0.227800
     33 HN61        -2.2210     1.4580    -3.1400 hn         1 474       0.355300
     34 HN62        -2.0110     2.6960    -2.1110 hn         1 474       0.355300
     35 H2          -2.0410    -0.1390    -1.4910 h1         1 474       0.084700
     36 H211        -6.0390     0.6890     0.5620 h1         1 474       0.066700
     37 H212        -6.3570     1.1460    -1.1090 h1         1 474       0.066700
     38 H201        -6.9220    -1.0770    -1.7520 hc         1 474       0.081200
     39 H202        -7.4520    -1.1630    -0.0660 hc         1 474       0.081200
     40 H181        -4.1630    -1.4850    -2.1160 h1         1 474       0.087200
     41 H182        -3.3230    -1.6050    -0.5550 h1         1 474       0.087200
     42 H1          -1.5270     2.2240     0.3380 hc         1 474       0.070700
     43 H101        -2.0590    -0.6380     3.8180 h1         1 474       0.044867
     44 H102        -3.4420     0.4360     4.0320 h1         1 474       0.044867
     45 H103        -3.5180    -0.8660     2.8480 h1         1 474       0.044867
     46 H141        -3.0430     2.7490     1.8010 h1         1 474       0.044867
     47 H142        -2.9050     2.3910     3.5140 h1         1 474       0.044867
     48 H143        -1.4540     2.6970     2.5810 h1         1 474       0.044867
     49 H32          0.3920     1.8520    -0.9210 hc         1 474       0.065700
     50 H311         0.7790     0.6300     1.8460 hc         1 474       0.048700
     51 H312         0.6580     2.3490     1.4950 hc         1 474       0.048700
     52 H302         2.6790     2.2620     0.1110 hc         1 474       0.043700
     53 H29          2.7620    -0.6800     0.9040 hc         1 474       0.056700
     54 H52          4.8980    -1.5940     1.1320 h4         1 474       0.180000
     55 H55          9.5420    -1.6950     0.3060 h5         1 474       0.070800
     56 H49          6.8150     1.8460    -1.8650 ha         1 474       0.165000
     57 H50          4.3950     1.8520    -1.4090 ha         1 474       0.145000
     58 H341         2.3500     0.5660    -1.8470 hc         1 474       0.043700
     59 H342         2.4800    -1.1500    -1.5040 hc         1 474       0.043700
     60 H331         0.4580    -1.0730    -0.1000 hc         1 474       0.048700
     61 H332         0.1160    -0.4730    -1.7120 hc         1 474       0.048700
     62 H301         3.0190     1.6410     1.7180 hc         1 474       0.043700
@<TRIPOS>BOND
     1     1     2 1   
     2     1     5 1   
     3     1    20 1   
     4     1    42 1   
     5     2     3 1   
     6     2     6 1   
     7     2    35 1   
     8     3     4 1   
     9     3     7 2   
    10     4    12 1   
    11     4    15 1   
    12     5     8 2   
    13     5     9 1   
    14     6    33 1   
    15     6    34 1   
    16     9    10 1   
    17     9    11 1   
    18    10    43 1   
    19    10    44 1   
    20    10    45 1   
    21    11    46 1   
    22    11    47 1   
    23    11    48 1   
    24    12    13 1   
    25    12    40 1   
    26    12    41 1   
    27    13    14 1   
    28    13    16 1   
    29    13    32 1   
    30    14    15 1   
    31    14    38 1   
    32    14    39 1   
    33    15    36 1   
    34    15    37 1   
    35    17    18 1   
    36    17    22 1   
    37    17    26 1   
    38    17    53 1   
    39    18    19 1   
    40    18    52 1   
    41    18    62 1   
    42    19    20 1   
    43    19    50 1   
    44    19    51 1   
    45    20    21 1   
    46    20    49 1   
    47    21    22 1   
    48    21    60 1   
    49    21    61 1   
    50    22    58 1   
    51    22    59 1   
    52    23    24 1   
    53    23    28 1   
    54    23    31 2   
    55    24    25 2   
    56    24    56 1   
    57    25    26 1   
    58    25    57 1   
    59    26    27 2   
    60    27    28 1   
    61    27    54 1   
    62    28    29 1   
    63    29    30 2   
    64    30    31 1   
    65    30    55 1   
@<TRIPOS>SUBSTRUCTURE
     1 474         1 TEMP              0 ****  ****    0 ROOT
