@<TRIPOS>MOLECULE
474
   62    65     1     0     0
SMALL
No Charge or Current Charge


@<TRIPOS>ATOM
      1 C1          -1.4070     1.1480     0.2960 c3         1 474      -0.119700
      2 C2          -2.3890     0.6490    -0.8150 c3         1 474       0.108500
      3 C3          -3.9040     0.7580    -0.3690 c          1 474       0.560100
      4 N4          -4.8480    -0.1060    -0.9690 n          1 474      -0.407800
      5 C5          -1.7450     0.4310     1.6380 c          1 474       0.592100
      6 N6          -2.1010     1.3500    -2.1160 n8         1 474      -0.992200
      7 O7          -4.2830     1.6130     0.4250 o          1 474      -0.619100
      8 O8          -1.8930    -0.7860     1.6610 o          1 474      -0.625100
      9 N9          -1.8100     1.1640     2.8520 n          1 474      -0.402800
     10 C10         -1.9970     0.4440     4.1330 c3         1 474       0.088800
     11 C14         -1.9550     2.6380     2.8890 c3         1 474       0.088800
     12 C18         -4.4890    -1.3260    -1.7400 c5         1 474       0.045000
     13 C19         -5.8480    -2.0720    -1.8570 c5         1 474       0.174000
     14 C20         -6.8830    -0.9240    -1.7830 c5         1 474      -0.150400
     15 C21         -6.2920    -0.0270    -0.6680 c5         1 474       0.100000
     16 F28         -6.0210    -2.9770    -0.8100 f          1 474      -0.106500
     17 C29          2.9950     0.1680     0.3130 c6         1 474      -0.010400
     18 C30          2.5370     1.6210     0.6080 c6         1 474      -0.067900
     19 C31          1.0440     1.6690     1.0160 c6         1 474      -0.074400
     20 C32          0.1280     1.0270    -0.0690 c6         1 474      -0.038700
     21 C33          0.6000    -0.4310    -0.3660 c6         1 474      -0.074400
     22 C34          2.0940    -0.4740    -0.7750 c6         1 474      -0.067900
     23 C48          7.1270     0.0170    -0.7820 cc         1 474      -0.067000
     24 C49          6.2470     0.7520    -1.6150 cc         1 474      -0.094000
     25 C50          4.9190     0.8040    -1.2690 cd         1 474      -0.078000
     26 C51          4.4660     0.1130    -0.0760 cd         1 474      -0.116300
     27 C52          5.3470    -0.6090     0.7380 cc         1 474      -0.076000
     28 N53          6.6840    -0.6230     0.3320 na         1 474       0.296400
     29 N54          7.6500    -1.2730     1.0080 nc         1 474      -0.603100
     30 C55          8.7070    -0.9900     0.2410 cd         1 474       0.529200
     31 N56          8.4210    -0.1960    -0.8720 nd         1 474      -0.400300
     32 F62         -5.9500    -2.7740    -3.0560 f          1 474      -0.106500
     33 HN61        -2.7430     1.0080    -2.8420 hn         1 474       0.410500
     34 HN62        -2.3510     2.3420    -2.0300 hn         1 474       0.410500
     35 H2          -2.1880    -0.4190    -0.9620 h1         1 474       0.084700
     36 H211        -6.5020    -0.4270     0.3340 h1         1 474       0.066700
     37 H212        -6.6750     1.0010    -0.7200 h1         1 474       0.066700
     38 H201        -6.9380    -0.3820    -2.7340 hc         1 474       0.081200
     39 H202        -7.8940    -1.2760    -1.5480 hc         1 474       0.081200
     40 H181        -4.0900    -1.0670    -2.7300 h1         1 474       0.087200
     41 H182        -3.7480    -1.9440    -1.2160 h1         1 474       0.087200
     42 H1          -1.5840     2.2200     0.4180 hc         1 474       0.070700
     43 H101        -1.3110    -0.4110     4.1870 h1         1 474       0.044867
     44 H102        -1.7890     1.1070     4.9830 h1         1 474       0.044867
     45 H103        -3.0300     0.0820     4.2050 h1         1 474       0.044867
     46 H141        -2.7750     2.9520     2.2310 h1         1 474       0.044867
     47 H142        -2.1820     2.9800     3.9070 h1         1 474       0.044867
     48 H143        -1.0230     3.1150     2.5630 h1         1 474       0.044867
     49 H32          0.2700     1.6130    -0.9880 hc         1 474       0.065700
     50 H311         0.9160     1.1540     1.9780 hc         1 474       0.048700
     51 H312         0.7550     2.7160     1.1780 hc         1 474       0.048700
     52 H302         2.6930     2.2580    -0.2730 hc         1 474       0.043700
     53 H29          2.8520    -0.4120     1.2360 hc         1 474       0.056700
     54 H52          5.0940    -1.1490     1.6400 h4         1 474       0.162000
     55 H55          9.7130    -1.3360     0.4440 h5         1 474       0.070800
     56 H49          6.6270     1.2540    -2.5000 ha         1 474       0.147000
     57 H50          4.2250     1.3600    -1.8910 ha         1 474       0.127000
     58 H341         2.2220     0.0450    -1.7350 hc         1 474       0.043700
     59 H342         2.4000    -1.5160    -0.9430 hc         1 474       0.043700
     60 H331         0.4550    -1.0690     0.5150 hc         1 474       0.048700
     61 H332         0.0020    -0.8720    -1.1740 hc         1 474       0.048700
     62 H301         3.1520     2.0480     1.4120 hc         1 474       0.043700
@<TRIPOS>BOND
     1     1     2 1   
     2     1     5 1   
     3     1    20 1   
     4     1    42 1   
     5     2     3 1   
     6     2     6 1   
     7     2    35 1   
     8     3     4 1   
     9     3     7 2   
    10     4    12 1   
    11     4    15 1   
    12     5     8 2   
    13     5     9 1   
    14     6    33 1   
    15     6    34 1   
    16     9    10 1   
    17     9    11 1   
    18    10    43 1   
    19    10    44 1   
    20    10    45 1   
    21    11    46 1   
    22    11    47 1   
    23    11    48 1   
    24    12    13 1   
    25    12    40 1   
    26    12    41 1   
    27    13    14 1   
    28    13    16 1   
    29    13    32 1   
    30    14    15 1   
    31    14    38 1   
    32    14    39 1   
    33    15    36 1   
    34    15    37 1   
    35    17    18 1   
    36    17    22 1   
    37    17    26 1   
    38    17    53 1   
    39    18    19 1   
    40    18    52 1   
    41    18    62 1   
    42    19    20 1   
    43    19    50 1   
    44    19    51 1   
    45    20    21 1   
    46    20    49 1   
    47    21    22 1   
    48    21    60 1   
    49    21    61 1   
    50    22    58 1   
    51    22    59 1   
    52    23    24 1   
    53    23    28 1   
    54    23    31 2   
    55    24    25 2   
    56    24    56 1   
    57    25    26 1   
    58    25    57 1   
    59    26    27 2   
    60    27    28 1   
    61    27    54 1   
    62    28    29 1   
    63    29    30 2   
    64    30    31 1   
    65    30    55 1   
@<TRIPOS>SUBSTRUCTURE
     1 474         1 TEMP              0 ****  ****    0 ROOT
