@<TRIPOS>MOLECULE
475
   40    41     1     0     0
SMALL
bcc


@<TRIPOS>ATOM
      1 C2          -2.4990    -1.5700     0.0380 c6         1 475       0.075100
      2 N2           3.1000     0.2010    -0.4360 ns         1 475      -0.539400
      3 C3          -3.9480    -1.3330    -0.3650 c6         1 475       0.116100
      4 C5          -3.5540     1.1100    -0.0270 c6         1 475       0.155100
      5 C4          -4.4880    -0.0620     0.2810 c6         1 475       0.120100
      6 C10          5.3480     0.7170    -1.0440 ca         1 475      -0.287300
      7 C11          6.6970     0.6640    -0.7570 ca         1 475      -0.064000
      8 C12          7.1170     0.0530     0.4180 ca         1 475      -0.276300
      9 C13          6.1490    -0.4770     1.2510 ca         1 475       0.436200
     10 N3           4.8450    -0.4350     0.9910 nb         1 475      -0.681000
     11 C9           4.4590     0.1460    -0.1290 ca         1 475       0.547200
     12 C8           2.0480    -0.2550     0.2690 c          1 475       0.599100
     13 O8           2.0540    -0.8070     1.3470 o          1 475      -0.537100
     14 O7           0.7070     0.5770    -1.5540 o          1 475      -0.584100
     15 N1          -0.3400    -0.4620     0.1830 ns         1 475      -0.542900
     16 C1          -1.6870    -0.3080    -0.2640 c6         1 475       0.279500
     17 O5          -2.2430     0.7980     0.4010 os         1 475      -0.409600
     18 C6          -3.9810     2.3780     0.6810 c3         1 475       0.149400
     19 O4          -5.7650     0.2590    -0.2110 oh         1 475      -0.592800
     20 O3          -4.7820    -2.3960     0.0270 oh         1 475      -0.602800
     21 O2          -2.0220    -2.6710    -0.6930 oh         1 475      -0.594800
     22 H2          -2.4600    -1.7570     1.1220 h1         1 475       0.056700
     23 HN2          2.8610     0.6410    -1.3150 hn         1 475       0.352500
     24 H3          -3.9810    -1.1920    -1.4580 h1         1 475       0.058700
     25 H5          -3.5610     1.2840    -1.1160 h1         1 475       0.066700
     26 HO6         -3.4170     4.2260     0.7320 ho         1 475       0.405000
     27 H4          -4.5090    -0.2080     1.3730 h1         1 475       0.053700
     28 H11          7.4120     1.0960    -1.4440 ha         1 475       0.139000
     29 H12          8.1630    -0.0100     0.6820 ha         1 475       0.146000
     30 H13          6.4310    -0.9620     2.1790 h4         1 475       0.024100
     31 HN1         -0.1730    -0.8630     1.0960 hn         1 475       0.343500
     32 H1          -1.6750    -0.1400    -1.3490 h2         1 475       0.085700
     33 H6          -5.0260     2.5800     0.4240 h1         1 475       0.036200
     34 H6A         -3.9410     2.2110     1.7660 h1         1 475       0.036200
     35 HO4         -6.3650    -0.4590     0.0160 ho         1 475       0.426000
     36 HO3         -4.5670    -3.1660    -0.5080 ho         1 475       0.427000
     37 HO2         -1.2420    -3.0260    -0.2560 ho         1 475       0.420000
     38 O6          -3.1320     3.4270     0.2810 oh         1 475      -0.585800
     39 C7           0.7230     0.0090    -0.4780 c          1 475       0.594100
     40 H10          4.9870     1.1830    -1.9520 ha         1 475       0.146000
@<TRIPOS>BOND
     1     1     3 1   
     2     1    16 1   
     3     1    21 1   
     4     1    22 1   
     5     2    11 1   
     6     2    12 1   
     7     2    23 1   
     8     3     5 1   
     9     3    20 1   
    10     3    24 1   
    11     4     5 1   
    12     4    17 1   
    13     4    18 1   
    14     4    25 1   
    15     5    19 1   
    16     5    27 1   
    17     6     7 ar  
    18     6    11 ar  
    19     6    40 1   
    20     7     8 ar  
    21     7    28 1   
    22     8     9 ar  
    23     8    29 1   
    24     9    10 ar  
    25     9    30 1   
    26    10    11 ar  
    27    12    13 2   
    28    12    39 1   
    29    14    39 2   
    30    15    16 1   
    31    15    31 1   
    32    15    39 1   
    33    16    17 1   
    34    16    32 1   
    35    18    33 1   
    36    18    34 1   
    37    18    38 1   
    38    19    35 1   
    39    20    36 1   
    40    21    37 1   
    41    26    38 1   
@<TRIPOS>SUBSTRUCTURE
     1 475         1 TEMP              0 ****  ****    0 ROOT
