@<TRIPOS>MOLECULE
475
   40    41     1     0     0
SMALL
No Charge or Current Charge


@<TRIPOS>ATOM
      1 C2          -2.7230    -1.7180    -0.0840 c6         1 475       0.098300
      2 N2           3.1710     0.2150    -0.5180 ns         1 475      -0.305900
      3 C3          -4.1980    -1.3070    -0.3560 c6         1 475       0.139300
      4 C5          -3.5180     1.1150     0.0020 c6         1 475       0.178300
      5 C4          -4.5460     0.0090     0.4000 c6         1 475       0.143300
      6 C10          5.5130     0.5050    -1.1260 ca         1 475      -0.204000
      7 C11          6.8560     0.5800    -0.7260 ca         1 475      -0.046000
      8 C12          7.1450     0.3990     0.6360 ca         1 475      -0.193000
      9 C13          6.0920     0.1610     1.5360 ca         1 475       0.370900
     10 N3           4.7980     0.0890     1.1500 nb         1 475      -0.681000
     11 C9           4.5270     0.2370    -0.1630 ca         1 475       0.481900
     12 C8           2.0980    -0.4650     0.0370 c          1 475       0.532100
     13 O8           2.1910    -1.2680     0.9650 o          1 475      -0.537100
     14 O7           0.5870     0.6300    -1.6240 o          1 475      -0.584100
     15 N1          -0.3960    -0.7890    -0.1220 ns         1 475      -0.475900
     16 C1          -1.7850    -0.5260    -0.4770 c6         1 475       0.302700
     17 O5          -2.1680     0.6450     0.2680 os         1 475      -0.456000
     18 C6          -3.7440     2.4480     0.7900 c3         1 475       0.172600
     19 O4          -5.9040     0.3910     0.1060 oh         1 475      -0.715000
     20 O3          -5.0870    -2.3690     0.0300 oh         1 475      -0.665000
     21 O2          -2.4170    -2.9320    -0.8140 oh         1 475      -0.717000
     22 H2          -2.6100    -1.8950     0.9970 h1         1 475       0.056700
     23 HN2          2.9440     0.7940    -1.3150 hn         1 475       0.186000
     24 H3          -4.2990    -1.1170    -1.4360 h1         1 475       0.058700
     25 H5          -3.6130     1.3330    -1.0720 h1         1 475       0.066700
     26 HO6         -2.9650     4.2370     1.0700 ho         1 475       0.504000
     27 H4          -4.4410    -0.1790     1.4790 h1         1 475       0.053700
     28 H11          7.6480     0.7770    -1.4470 ha         1 475       0.121000
     29 H12          8.1680     0.4490     0.9990 ha         1 475       0.128000
     30 H13          6.2910     0.0280     2.5990 h4         1 475       0.024100
     31 HN1         -0.2090    -1.3650     0.6910 hn         1 475       0.343500
     32 H1          -1.8590    -0.3280    -1.5590 h2         1 475       0.085700
     33 H6          -4.7560     2.8130     0.5650 h1         1 475       0.036200
     34 H6A         -3.7160     2.2170     1.8640 h1         1 475       0.036200
     35 HO4         -6.4100    -0.4580     0.1050 ho         1 475       0.525000
     36 HO3         -4.6130    -3.1930    -0.2340 ho         1 475       0.466000
     37 HO2         -1.4660    -3.1460    -0.6600 ho         1 475       0.519000
     38 O6          -2.7750     3.4710     0.4790 oh         1 475      -0.708000
     39 C7           0.6950    -0.1340    -0.6660 c          1 475       0.527100
     40 H10          5.2380     0.6470    -2.1670 ha         1 475       0.128000
@<TRIPOS>BOND
     1     1     3 1   
     2     1    16 1   
     3     1    21 1   
     4     1    22 1   
     5     2    11 1   
     6     2    12 1   
     7     2    23 1   
     8     3     5 1   
     9     3    20 1   
    10     3    24 1   
    11     4     5 1   
    12     4    17 1   
    13     4    18 1   
    14     4    25 1   
    15     5    19 1   
    16     5    27 1   
    17     6     7 ar  
    18     6    11 ar  
    19     6    40 1   
    20     7     8 ar  
    21     7    28 1   
    22     8     9 ar  
    23     8    29 1   
    24     9    10 ar  
    25     9    30 1   
    26    10    11 ar  
    27    12    13 2   
    28    12    39 1   
    29    14    39 2   
    30    15    16 1   
    31    15    31 1   
    32    15    39 1   
    33    16    17 1   
    34    16    32 1   
    35    18    33 1   
    36    18    34 1   
    37    18    38 1   
    38    19    35 1   
    39    20    36 1   
    40    21    37 1   
    41    26    38 1   
@<TRIPOS>SUBSTRUCTURE
     1 475         1 TEMP              0 ****  ****    0 ROOT
