@<TRIPOS>MOLECULE
476
   36    36     1     0     0
SMALL
abcg2


@<TRIPOS>ATOM
      1 O11          2.4890     1.8130     1.1580 o          1 476      -0.910833
      2 P10          2.2450     1.3690    -0.2990 p5         1 476       1.310000
      3 O13          1.1070     2.1790    -0.9600 o          1 476      -0.910833
      4 O12          3.5100     1.3250    -1.1560 o          1 476      -0.910833
      5 C8           1.5530    -0.3630    -0.1960 c3         1 476      -0.610700
      6 P9           2.7520    -1.7800     0.0860 p5         1 476       1.310000
      7 O15          3.5540    -1.9390    -1.2090 o          1 476      -0.910833
      8 O14          3.5890    -1.4120     1.3150 o          1 476      -0.910833
      9 O16          1.8310    -2.9930     0.3490 o          1 476      -0.910833
     10 C7           0.4970    -0.4490     0.8890 c3         1 476       0.076600
     11 N2          -0.6700     0.4390     0.6650 na         1 476       0.100300
     12 C1          -1.7260    -0.0410    -0.0030 ca         1 476      -0.079000
     13 C6          -2.8300     0.7370    -0.2790 ca         1 476      -0.182300
     14 C5          -2.8090     2.0550     0.1780 ca         1 476      -0.108000
     15 C4          -1.7020     2.5410     0.8440 ca         1 476      -0.148000
     16 C3          -0.6150     1.7150     1.0530 ca         1 476       0.035700
     17 C17         -4.0210     0.1510    -0.9780 c3         1 476      -0.003100
     18 C18         -4.8970    -0.6720    -0.0330 c3         1 476      -0.080400
     19 C19         -6.1400    -1.2250    -0.7200 c3         1 476      -0.076400
     20 C20         -6.9940    -2.0760     0.2080 c3         1 476      -0.085100
     21 H3           1.0640    -0.5810    -1.1560 hc         1 476       0.032700
     22 H6           0.1000    -1.4590     0.9680 h1         1 476       0.068200
     23 H7           0.9210    -0.1690     1.8510 h1         1 476       0.068200
     24 H8          -1.6660    -1.0790    -0.3020 h4         1 476       0.153000
     25 H9          -3.6630     2.6970     0.0030 ha         1 476       0.072000
     26 H10         -1.6620     3.5620     1.1940 ha         1 476       0.106000
     27 H11          0.2920     2.0190     1.5570 h4         1 476       0.237000
     28 H12         -4.6110     0.9610    -1.4130 hc         1 476       0.033700
     29 H13         -3.6920    -0.4760    -1.8100 hc         1 476       0.033700
     30 H14         -4.3080    -1.4980     0.3780 hc         1 476       0.042200
     31 H15         -5.1940    -0.0540     0.8210 hc         1 476       0.042200
     32 H16         -6.7340    -0.3930    -1.1090 hc         1 476       0.028700
     33 H17         -5.8400    -1.8160    -1.5900 hc         1 476       0.028700
     34 H18         -6.4400    -2.9450     0.5680 hc         1 476       0.020700
     35 H19         -7.3160    -1.5070     1.0820 hc         1 476       0.020700
     36 H20         -7.8890    -2.4410    -0.2970 hc         1 476       0.020700
@<TRIPOS>BOND
     1     1     2 1   
     2     2     3 1   
     3     2     4 1   
     4     2     5 1   
     5     5     6 1   
     6     5    10 1   
     7     5    21 1   
     8     6     7 1   
     9     6     8 1   
    10     6     9 1   
    11    10    11 1   
    12    10    22 1   
    13    10    23 1   
    14    11    12 1   
    15    11    16 2   
    16    12    13 ar  
    17    12    24 1   
    18    13    14 ar  
    19    13    17 1   
    20    14    15 ar  
    21    14    25 1   
    22    15    16 ar  
    23    15    26 1   
    24    16    27 1   
    25    17    18 1   
    26    17    28 1   
    27    17    29 1   
    28    18    19 1   
    29    18    30 1   
    30    18    31 1   
    31    19    20 1   
    32    19    32 1   
    33    19    33 1   
    34    20    34 1   
    35    20    35 1   
    36    20    36 1   
@<TRIPOS>SUBSTRUCTURE
     1 476         1 TEMP              0 ****  ****    0 ROOT
