@<TRIPOS>MOLECULE
476
   36    36     1     0     0
SMALL
No Charge or Current Charge


@<TRIPOS>ATOM
      1 O11          2.6970     1.7990     0.7960 o          1 476      -0.910833
      2 P10          2.4810     1.1180    -0.5130 p5         1 476       1.310000
      3 O13          1.5330     1.9530    -1.3050 o          1 476      -0.910833
      4 O12          3.7570     0.9890    -1.2710 o          1 476      -0.910833
      5 C8           1.6290    -0.4410    -0.2370 c3         1 476      -0.610700
      6 P9           2.8770    -1.6660     0.1620 p5         1 476       1.310000
      7 O15          3.6100    -2.0710    -1.0710 o          1 476      -0.910833
      8 O14          3.8060    -1.2050     1.2310 o          1 476      -0.910833
      9 O16          2.1350    -2.8650     0.6490 o          1 476      -0.910833
     10 C7           0.5560    -0.3540     0.8800 c3         1 476       0.076600
     11 N2          -0.5920     0.5310     0.5860 na         1 476       0.100300
     12 C1          -1.6910     0.0360    -0.1230 ca         1 476      -0.079000
     13 C6          -2.8980     0.7610    -0.2030 ca         1 476      -0.182300
     14 C5          -2.9880     2.0180     0.4240 ca         1 476      -0.108000
     15 C4          -1.8750     2.5400     1.1050 ca         1 476      -0.148000
     16 C3          -0.6800     1.7970     1.1700 ca         1 476       0.035700
     17 C17         -4.0900     0.1870    -0.9570 c3         1 476      -0.003100
     18 C18         -5.0020    -0.6560    -0.0400 c3         1 476      -0.080400
     19 C19         -6.2210    -1.2510    -0.7780 c3         1 476      -0.076400
     20 C20         -7.1300    -2.0910     0.1400 c3         1 476      -0.085100
     21 H3           1.1620    -0.7480    -1.1760 hc         1 476       0.032700
     22 H6           0.1450    -1.3530     1.0710 h1         1 476       0.068200
     23 H7           1.0250    -0.0280     1.8190 h1         1 476       0.068200
     24 H8          -1.5790    -0.9390    -0.5980 h4         1 476       0.153000
     25 H9          -3.9100     2.5920     0.3750 ha         1 476       0.072000
     26 H10         -1.9330     3.5190     1.5750 ha         1 476       0.106000
     27 H11          0.2070     2.1850     1.6720 h4         1 476       0.237000
     28 H12         -4.6780     0.9980    -1.4040 hc         1 476       0.033700
     29 H13         -3.7430    -0.4360    -1.7910 hc         1 476       0.033700
     30 H14         -4.4120    -1.4700     0.4000 hc         1 476       0.042200
     31 H15         -5.3520    -0.0290     0.7890 hc         1 476       0.042200
     32 H16         -6.8130    -0.4390    -1.2180 hc         1 476       0.028700
     33 H17         -5.8730    -1.8800    -1.6070 hc         1 476       0.028700
     34 H18         -6.5750    -2.9340     0.5690 hc         1 476       0.020700
     35 H19         -7.5230    -1.4800     0.9610 hc         1 476       0.020700
     36 H20         -7.9790    -2.4920    -0.4270 hc         1 476       0.020700
@<TRIPOS>BOND
     1     1     2 1   
     2     2     3 1   
     3     2     4 1   
     4     2     5 1   
     5     5     6 1   
     6     5    10 1   
     7     5    21 1   
     8     6     7 1   
     9     6     8 1   
    10     6     9 1   
    11    10    11 1   
    12    10    22 1   
    13    10    23 1   
    14    11    12 1   
    15    11    16 2   
    16    12    13 ar  
    17    12    24 1   
    18    13    14 ar  
    19    13    17 1   
    20    14    15 ar  
    21    14    25 1   
    22    15    16 ar  
    23    15    26 1   
    24    16    27 1   
    25    17    18 1   
    26    17    28 1   
    27    17    29 1   
    28    18    19 1   
    29    18    30 1   
    30    18    31 1   
    31    19    20 1   
    32    19    32 1   
    33    19    33 1   
    34    20    34 1   
    35    20    35 1   
    36    20    36 1   
@<TRIPOS>SUBSTRUCTURE
     1 476         1 TEMP              0 ****  ****    0 ROOT
