@<TRIPOS>MOLECULE
477
   45    48     1     0     0
SMALL
bcc


@<TRIPOS>ATOM
      1 CAU          7.1380    -1.8910     1.2560 c3         1 477      -0.085600
      2 CAT          5.9540    -0.9350     1.2010 c3         1 477      -0.080400
      3 CAR          5.1870    -0.9150    -0.1370 c3         1 477       0.208100
      4 CAW          6.0880    -0.4430    -1.2860 c3         1 477      -0.080400
      5 CAX          5.3910    -0.3380    -2.6350 c3         1 477      -0.085600
      6 OAS          4.7740    -2.2240    -0.4720 oh         1 477      -0.591800
      7 CAJ          3.9880     0.0210    -0.0040 ca         1 477      -0.081300
      8 CAI          2.7000    -0.4370    -0.2090 ca         1 477      -0.136000
      9 CAK          4.1970     1.3800     0.3240 ca         1 477      -0.150000
     10 CAL          3.1570     2.2730     0.4570 ca         1 477      -0.076000
     11 CAG          1.8460     1.8220     0.2590 ca         1 477      -0.101800
     12 CAF          0.5590     2.4330     0.3060 cc         1 477      -0.165200
     13 CAH          1.6480     0.4660    -0.0670 ca         1 477      -0.038200
     14 NAE          0.3040     0.2670    -0.2020 na         1 477      -0.156400
     15 CAD         -0.3530     1.4520     0.0100 cd         1 477      -0.004300
     16 CAC         -1.7900     1.5220    -0.0650 cd         1 477      -0.009100
     17 NAB         -2.4730     2.6750    -0.2650 na         1 477       0.039400
     18 NAA         -3.7920     2.5550    -0.2890 nd         1 477      -0.469800
     19 CAM         -3.9940     1.2600    -0.0980 cc         1 477       0.296600
     20 CAQ         -5.1400     0.4110     0.0090 cc         1 477      -0.101300
     21 CAN         -2.7800     0.5630     0.0470 cc         1 477      -0.169400
     22 SAO         -3.0290    -1.1140     0.3420 ss         1 477      -0.117800
     23 CAP         -4.7630    -0.8670     0.2380 cd         1 477      -0.116400
     24 CAV         -5.6520    -2.0560     0.3540 c3         1 477       0.496200
     25 FAZ         -6.8800    -1.6720     0.7840 f          1 477      -0.236300
     26 FAY         -5.8300    -2.6270    -0.8720 f          1 477      -0.236300
     27 H1           7.5820    -1.8790     2.2520 hc         1 477       0.036700
     28 H2           6.8410    -2.9180     1.0430 hc         1 477       0.036700
     29 H3           7.9250    -1.6180     0.5520 hc         1 477       0.036700
     30 H4           5.2430    -1.1970     1.9920 hc         1 477       0.045450
     31 H5           6.2940     0.0760     1.4350 hc         1 477       0.045450
     32 H6           6.5110     0.5270    -1.0140 hc         1 477       0.045450
     33 H7           6.9340    -1.1300    -1.3690 hc         1 477       0.045450
     34 H8           6.0980    -0.0180    -3.4010 hc         1 477       0.036700
     35 H9           4.9750    -1.2940    -2.9510 hc         1 477       0.036700
     36 H10          4.5770     0.3880    -2.6140 hc         1 477       0.036700
     37 H11          4.3320    -2.6130     0.2910 ho         1 477       0.402000
     38 H12          2.5000    -1.4640    -0.4850 ha         1 477       0.142000
     39 H13          5.2070     1.7410     0.4700 ha         1 477       0.130000
     40 H14          3.3550     3.3080     0.7050 ha         1 477       0.135000
     41 H15          0.3350     3.4580     0.5570 ha         1 477       0.153000
     42 H16         -0.1150    -0.5820    -0.5460 hn         1 477       0.307700
     43 H17         -2.0620     3.5840    -0.4200 hn         1 477       0.329700
     44 H18         -6.1650     0.7410    -0.0760 ha         1 477       0.178000
     45 H19         -5.2670    -2.8230     1.0280 h2         1 477       0.068700
@<TRIPOS>BOND
     1     1     2 1   
     2     1    27 1   
     3     1    28 1   
     4     1    29 1   
     5     2     3 1   
     6     2    30 1   
     7     2    31 1   
     8     3     4 1   
     9     3     6 1   
    10     3     7 1   
    11     4     5 1   
    12     4    32 1   
    13     4    33 1   
    14     5    34 1   
    15     5    35 1   
    16     5    36 1   
    17     6    37 1   
    18     7     8 ar  
    19     7     9 ar  
    20     8    13 ar  
    21     8    38 1   
    22     9    10 ar  
    23     9    39 1   
    24    10    11 ar  
    25    10    40 1   
    26    11    12 1   
    27    11    13 ar  
    28    12    15 2   
    29    12    41 1   
    30    13    14 1   
    31    14    15 1   
    32    14    42 1   
    33    15    16 1   
    34    16    17 1   
    35    16    21 2   
    36    17    18 1   
    37    17    43 1   
    38    18    19 2   
    39    19    20 1   
    40    19    21 1   
    41    20    23 2   
    42    20    44 1   
    43    21    22 1   
    44    22    23 1   
    45    23    24 1   
    46    24    25 1   
    47    24    26 1   
    48    24    45 1   
@<TRIPOS>SUBSTRUCTURE
     1 477         1 TEMP              0 ****  ****    0 ROOT
