@<TRIPOS>MOLECULE
477
   45    48     1     0     0
SMALL
No Charge or Current Charge


@<TRIPOS>ATOM
      1 CAU          7.3030    -1.7210     1.3350 c3         1 477      -0.085600
      2 CAT          6.0810    -0.7750     1.2140 c3         1 477      -0.080400
      3 CAR          5.2030    -0.9310    -0.0700 c3         1 477       0.231300
      4 CAW          6.0190    -0.6320    -1.3650 c3         1 477      -0.080400
      5 CAX          5.2020    -0.6670    -2.6790 c3         1 477      -0.085600
      6 OAS          4.7850    -2.3010    -0.1300 oh         1 477      -0.654000
      7 CAJ          3.9760     0.0110     0.0250 ca         1 477      -0.081300
      8 CAI          2.6410    -0.4800    -0.0270 ca         1 477      -0.118000
      9 CAK          4.1780     1.4170     0.1460 ca         1 477      -0.132000
     10 CAL          3.0900     2.3100     0.2270 ca         1 477      -0.058000
     11 CAG          1.8000     1.7750     0.1800 ca         1 477      -0.101800
     12 CAF          0.5240     2.4230     0.2330 cc         1 477      -0.215200
     13 CAH          1.5790     0.4310     0.0560 ca         1 477      -0.038200
     14 NAE          0.2200     0.1550     0.0230 na         1 477      -0.206700
     15 CAD         -0.4180     1.4080     0.1350 cd         1 477      -0.004300
     16 CAC         -1.8400     1.6330     0.1480 cd         1 477      -0.059800
     17 NAB         -2.5230     2.8630     0.2580 na         1 477       0.039800
     18 NAA         -3.9330     2.6970     0.2350 nd         1 477      -0.469800
     19 CAM         -4.0320     1.3890     0.1140 cc         1 477       0.166000
     20 CAQ         -5.0990     0.4580     0.0220 cc         1 477      -0.018000
     21 CAN         -2.8480     0.7350     0.0600 cc         1 477      -0.249000
     22 SAO         -2.8600    -0.9930    -0.1000 ss         1 477       0.172000
     23 CAP         -4.6550    -0.8600    -0.0980 cd         1 477      -0.261300
     24 CAV         -5.5020    -2.0990    -0.2170 c3         1 477       0.253600
     25 FAZ         -6.3120    -2.2440     0.8560 f          1 477      -0.115000
     26 FAY         -6.3000    -2.0440    -1.3080 f          1 477      -0.115000
     27 H1           7.8140    -1.5510     2.2910 hc         1 477       0.036700
     28 H2           7.0000    -2.7740     1.3000 hc         1 477       0.036700
     29 H3           8.0280    -1.5390     0.5340 hc         1 477       0.036700
     30 H4           5.4440    -0.9230     2.0950 hc         1 477       0.045450
     31 H5           6.4510     0.2540     1.2800 hc         1 477       0.045450
     32 H6           6.4930     0.3530    -1.2770 hc         1 477       0.045450
     33 H7           6.8360    -1.3580    -1.4580 hc         1 477       0.045450
     34 H8           5.8580    -0.4830    -3.5380 hc         1 477       0.036700
     35 H9           4.7260    -1.6450    -2.8190 hc         1 477       0.036700
     36 H10          4.4210     0.1020    -2.6800 hc         1 477       0.036700
     37 H11          4.3460    -2.4920     0.7240 ho         1 477       0.441000
     38 H12          2.4220    -1.5380    -0.1380 ha         1 477       0.124000
     39 H13          5.1850     1.8250     0.1720 ha         1 477       0.112000
     40 H14          3.2500     3.3820     0.3190 ha         1 477       0.117000
     41 H15          0.3260     3.4870     0.3300 ha         1 477       0.203000
     42 H16         -0.2220    -0.7510    -0.0640 hn         1 477       0.358000
     43 H17         -2.0980     3.7830     0.3450 hn         1 477       0.380000
     44 H18         -6.1390     0.7640     0.0440 ha         1 477       0.160000
     45 H19         -4.8660    -2.9870    -0.2960 h2         1 477       0.068700
@<TRIPOS>BOND
     1     1     2 1   
     2     1    27 1   
     3     1    28 1   
     4     1    29 1   
     5     2     3 1   
     6     2    30 1   
     7     2    31 1   
     8     3     4 1   
     9     3     6 1   
    10     3     7 1   
    11     4     5 1   
    12     4    32 1   
    13     4    33 1   
    14     5    34 1   
    15     5    35 1   
    16     5    36 1   
    17     6    37 1   
    18     7     8 ar  
    19     7     9 ar  
    20     8    13 ar  
    21     8    38 1   
    22     9    10 ar  
    23     9    39 1   
    24    10    11 ar  
    25    10    40 1   
    26    11    12 1   
    27    11    13 ar  
    28    12    15 2   
    29    12    41 1   
    30    13    14 1   
    31    14    15 1   
    32    14    42 1   
    33    15    16 1   
    34    16    17 1   
    35    16    21 2   
    36    17    18 1   
    37    17    43 1   
    38    18    19 2   
    39    19    20 1   
    40    19    21 1   
    41    20    23 2   
    42    20    44 1   
    43    21    22 1   
    44    22    23 1   
    45    23    24 1   
    46    24    25 1   
    47    24    26 1   
    48    24    45 1   
@<TRIPOS>SUBSTRUCTURE
     1 477         1 TEMP              0 ****  ****    0 ROOT
