@<TRIPOS>MOLECULE
478
   70    72     1     0     0
SMALL
No Charge or Current Charge


@<TRIPOS>ATOM
      1 C1           5.8990    -0.5760    -0.4940 c5         1 478       0.122600
      2 C2           6.0290    -0.5230    -2.9400 c5         1 478      -0.120400
      3 C3           2.9550    -1.0530    -0.9770 c          1 478       0.641100
      4 C4           5.1860    -1.1270    -1.7810 c5         1 478       0.160300
      5 C5           0.6260    -0.4860    -0.2130 c3         1 478       0.093700
      6 C6          -0.6780    -0.6120    -1.0610 c3         1 478       0.141300
      7 C7           0.6190     0.6600     0.8420 c3         1 478      -0.058100
      8 C8           1.9520     0.8120     1.5700 ca         1 478      -0.090300
      9 C9           2.8300     1.8630     1.2400 ca         1 478      -0.100500
     10 C10          2.3230    -0.1110     2.5670 ca         1 478      -0.100500
     11 C11          4.0660     1.9890     1.8980 ca         1 478      -0.106500
     12 C12          3.5600     0.0130     3.2240 ca         1 478      -0.106500
     13 C13          4.4320     1.0630     2.8900 ca         1 478      -0.108000
     14 C14         -1.9570    -0.9470    -0.2460 c3         1 478       0.193800
     15 C15         -3.4210    -1.5640    -2.2370 c3         1 478       0.235800
     16 C16         -3.1670    -3.1010    -2.1300 c3         1 478      -0.079700
     17 C17         -4.0210     1.1120     0.8030 ca         1 478      -0.366500
     18 C18         -3.7520     2.3110     0.1170 ca         1 478       0.036000
     19 C19         -3.2760     3.4260     0.8260 ca         1 478      -0.222000
     20 C20         -3.0690     3.3460     2.2070 ca         1 478       0.373000
     21 C21         -3.3350     2.1550     2.8900 ca         1 478      -0.222000
     22 C22         -3.8120     1.0320     2.1940 ca         1 478       0.036000
     23 C23         -4.0550    -3.8270    -1.0940 c3         1 478      -0.092100
     24 C24         -3.3110    -3.7640    -3.5200 c3         1 478      -0.092100
     25 C25          7.3930    -0.3360    -2.2450 c5         1 478       0.147600
     26 N1           1.7890    -0.3530    -1.0980 ns         1 478      -0.486900
     27 N2          -3.2120    -0.7260    -1.0200 n3         1 478      -0.788500
     28 N3          -2.6100     4.4330     2.8900 nv         1 478      -1.094000
     29 O1           3.8510    -0.5620    -1.8840 os         1 478      -0.453100
     30 O2           3.1490    -1.9620    -0.1840 o          1 478      -0.544000
     31 O3          -0.9320     0.5900    -1.8090 oh         1 478      -0.654000
     32 O4          -4.8920    -1.4280     0.8010 o          1 478      -0.547000
     33 O5          -5.5820     0.1730    -1.0830 o          1 478      -0.547000
     34 O6           7.0140     0.2110    -0.9720 os         1 478      -0.447000
     35 S1          -4.6000    -0.3210    -0.1130 sy         1 478       1.206600
     36 H11A         5.2470     0.0540     0.1250 h1         1 478       0.066200
     37 H12A         6.2790    -1.3990     0.1260 h1         1 478       0.066200
     38 H21A         6.0890    -1.1900    -3.8070 hc         1 478       0.068200
     39 H22A         5.6310     0.4390    -3.2840 hc         1 478       0.068200
     40 H4           5.1550    -2.2250    -1.8110 h1         1 478       0.068700
     41 H5           0.7330    -1.4300     0.3390 h1         1 478       0.090700
     42 H6          -0.5260    -1.4430    -1.7630 h1         1 478       0.088700
     43 H71          0.3560     1.6040     0.3480 hc         1 478       0.052200
     44 H72         -0.1690     0.4790     1.5810 hc         1 478       0.052200
     45 H9           2.5600     2.5800     0.4680 ha         1 478       0.109500
     46 H10          1.6560    -0.9300     2.8280 ha         1 478       0.109500
     47 H11          4.7410     2.8000     1.6370 ha         1 478       0.116000
     48 H12          3.8420    -0.7050     3.9910 ha         1 478       0.116000
     49 H13          5.3890     1.1590     3.3980 ha         1 478       0.115000
     50 H141        -1.8980    -1.9800     0.1190 h1         1 478       0.059700
     51 H142        -1.9520    -0.3140     0.6460 h1         1 478       0.059700
     52 H151        -2.7450    -1.1940    -3.0190 h1         1 478       0.061200
     53 H152        -4.4310    -1.4130    -2.6400 h1         1 478       0.061200
     54 H16         -2.1250    -3.2530    -1.8270 hc         1 478       0.045700
     55 H18         -3.9040     2.3800    -0.9600 ha         1 478       0.133500
     56 H19         -3.0660     4.3500     0.2940 ha         1 478       0.118500
     57 H21         -3.1730     2.0910     3.9620 ha         1 478       0.118500
     58 H22         -4.0110     0.1090     2.7370 ha         1 478       0.133500
     59 H231        -5.1140    -3.5890    -1.2460 hc         1 478       0.038367
     60 H232        -3.9340    -4.9150    -1.1730 hc         1 478       0.038367
     61 H233        -3.7710    -3.5480    -0.0740 hc         1 478       0.038367
     62 H241        -2.6380    -3.2940    -4.2480 hc         1 478       0.038367
     63 H242        -3.0590    -4.8310    -3.4720 hc         1 478       0.038367
     64 H243        -4.3380    -3.6710    -3.8940 hc         1 478       0.038367
     65 H251         7.9160    -1.2910    -2.0910 h1         1 478       0.049200
     66 H252         8.0580     0.3580    -2.7760 h1         1 478       0.049200
     67 HN1          1.7730     0.3640    -1.8110 hn         1 478       0.331500
     68 HN31        -2.6030     5.3410     2.4290 hn         1 478       0.475500
     69 HN32        -2.6440     4.4330     3.9070 hn         1 478       0.475500
     70 HO3         -1.9170     0.6210    -1.8510 ho         1 478       0.447000
@<TRIPOS>BOND
     1     1     4 1   
     2     1    34 1   
     3     1    36 1   
     4     1    37 1   
     5     2     4 1   
     6     2    25 1   
     7     2    38 1   
     8     2    39 1   
     9     3    26 1   
    10     3    29 1   
    11     3    30 2   
    12     4    29 1   
    13     4    40 1   
    14     5     6 1   
    15     5     7 1   
    16     5    26 1   
    17     5    41 1   
    18     6    14 1   
    19     6    31 1   
    20     6    42 1   
    21     7     8 1   
    22     7    43 1   
    23     7    44 1   
    24     8     9 ar  
    25     8    10 ar  
    26     9    11 ar  
    27     9    45 1   
    28    10    12 ar  
    29    10    46 1   
    30    11    13 ar  
    31    11    47 1   
    32    12    13 ar  
    33    12    48 1   
    34    13    49 1   
    35    14    27 1   
    36    14    50 1   
    37    14    51 1   
    38    15    16 1   
    39    15    27 1   
    40    15    52 1   
    41    15    53 1   
    42    16    23 1   
    43    16    24 1   
    44    16    54 1   
    45    17    18 ar  
    46    17    22 ar  
    47    17    35 1   
    48    18    19 ar  
    49    18    55 1   
    50    19    20 ar  
    51    19    56 1   
    52    20    21 ar  
    53    20    28 1   
    54    21    22 ar  
    55    21    57 1   
    56    22    58 1   
    57    23    59 1   
    58    23    60 1   
    59    23    61 1   
    60    24    62 1   
    61    24    63 1   
    62    24    64 1   
    63    25    34 1   
    64    25    65 1   
    65    25    66 1   
    66    26    67 1   
    67    27    35 1   
    68    28    68 1   
    69    28    69 1   
    70    31    70 1   
    71    32    35 2   
    72    33    35 2   
@<TRIPOS>SUBSTRUCTURE
     1 478         1 TEMP              0 ****  ****    0 ROOT
