@<TRIPOS>MOLECULE
478
   70    72     1     0     0
SMALL
bcc


@<TRIPOS>ATOM
      1 C1           5.8870    -0.5470    -0.7200 c5         1 478       0.099400
      2 C2           5.7530     0.7790    -2.7320 c5         1 478      -0.120400
      3 C3           2.8590    -0.6540    -1.0370 c          1 478       0.757100
      4 C4           4.9990    -0.3020    -1.9570 c5         1 478       0.137100
      5 C5           0.6470    -0.6440     0.0210 c3         1 478       0.093700
      6 C6          -0.7110    -0.5370    -0.6890 c3         1 478       0.118100
      7 C7           0.6700     0.0270     1.4080 c3         1 478      -0.058100
      8 C8           2.0330    -0.0440     2.0360 ca         1 478      -0.090300
      9 C9           2.9250     1.0210     1.9350 ca         1 478      -0.118500
     10 C10          2.4480    -1.2010     2.6890 ca         1 478      -0.118500
     11 C11          4.2020     0.9320     2.4730 ca         1 478      -0.124500
     12 C12          3.7230    -1.2950     3.2300 ca         1 478      -0.124500
     13 C13          4.6050    -0.2270     3.1210 ca         1 478      -0.126000
     14 C14         -1.7940    -1.3050     0.0710 c3         1 478       0.193800
     15 C15         -3.3430    -1.7280    -1.8510 c3         1 478       0.235800
     16 C16         -3.3490    -3.2560    -1.8970 c3         1 478      -0.079700
     17 C17         -3.8510     1.1770     0.5670 ca         1 478      -0.366500
     18 C18         -4.0620     2.0650    -0.4870 ca         1 478       0.018000
     19 C19         -3.6350     3.3700    -0.3890 ca         1 478      -0.240000
     20 C20         -2.9660     3.8260     0.7620 ca         1 478       0.234600
     21 C21         -2.7630     2.9180     1.8160 ca         1 478      -0.240000
     22 C22         -3.2070     1.6140     1.7210 ca         1 478       0.018000
     23 C23         -4.4110    -3.8530    -0.9840 c3         1 478      -0.092100
     24 C24         -3.5470    -3.7060    -3.3400 c3         1 478      -0.092100
     25 C25          7.1470     0.7000    -2.1280 c5         1 478       0.124400
     26 N1           1.6630    -0.0710    -0.8300 ns         1 478      -0.553900
     27 N2          -3.1120    -1.1790    -0.5240 n3         1 478      -0.788500
     28 N3          -2.4970     5.0960     0.8360 nv         1 478      -0.845200
     29 O1           3.6990     0.1940    -1.6420 os         1 478      -0.429900
     30 O2           3.1500    -1.7960    -0.7450 o          1 478      -0.593000
     31 O3          -1.0580     0.7980    -0.9620 oh         1 478      -0.591800
     32 O4          -4.2930    -1.1030     1.7120 o          1 478      -0.617800
     33 O5          -5.5320    -0.5850    -0.4060 o          1 478      -0.617800
     34 O6           6.9190     0.4190    -0.7620 os         1 478      -0.400600
     35 S1          -4.3090    -0.5090     0.3800 sy         1 478       1.348200
     36 H11A         5.3480    -0.4450     0.2230 h1         1 478       0.066200
     37 H12A         6.3030    -1.5600    -0.7670 h1         1 478       0.066200
     38 H21A         5.7420     0.6170    -3.8080 hc         1 478       0.068200
     39 H22A         5.3140     1.7580    -2.5270 hc         1 478       0.068200
     40 H4           4.9040    -1.2160    -2.5460 h1         1 478       0.068700
     41 H5           0.8790    -1.7040     0.1410 h1         1 478       0.090700
     42 H6          -0.5740    -1.0050    -1.6680 h1         1 478       0.088700
     43 H71          0.3650     1.0730     1.3120 hc         1 478       0.052200
     44 H72         -0.0570    -0.4590     2.0620 hc         1 478       0.052200
     45 H9           2.6150     1.9310     1.4350 ha         1 478       0.127500
     46 H10          1.7660    -2.0390     2.7740 ha         1 478       0.127500
     47 H11          4.8840     1.7690     2.3850 ha         1 478       0.134000
     48 H12          4.0280    -2.2010     3.7370 ha         1 478       0.134000
     49 H13          5.6000    -0.2970     3.5420 ha         1 478       0.133000
     50 H141        -1.5050    -2.3590     0.1180 h1         1 478       0.059700
     51 H142        -1.8450    -0.9760     1.1100 h1         1 478       0.059700
     52 H151        -2.5690    -1.3430    -2.5210 h1         1 478       0.061200
     53 H152        -4.2890    -1.3480    -2.2360 h1         1 478       0.061200
     54 H16         -2.3680    -3.6180    -1.5660 hc         1 478       0.045700
     55 H18         -4.5630     1.7420    -1.3910 ha         1 478       0.151500
     56 H19         -3.8110     4.0530    -1.2110 ha         1 478       0.136500
     57 H21         -2.2610     3.2470     2.7160 ha         1 478       0.136500
     58 H22         -3.0520     0.9440     2.5560 ha         1 478       0.151500
     59 H231        -5.4090    -3.5130    -1.2680 hc         1 478       0.038367
     60 H232        -4.4010    -4.9420    -1.0440 hc         1 478       0.038367
     61 H233        -4.2520    -3.5830     0.0610 hc         1 478       0.038367
     62 H241        -2.7890    -3.2810    -4.0020 hc         1 478       0.038367
     63 H242        -3.4860    -4.7910    -3.4240 hc         1 478       0.038367
     64 H243        -4.5270    -3.3990    -3.7160 hc         1 478       0.038367
     65 H251         7.7350    -0.0970    -2.6040 h1         1 478       0.049200
     66 H252         7.7100     1.6310    -2.2090 h1         1 478       0.049200
     67 HN1          1.5610     0.9030    -1.0750 hn         1 478       0.331500
     68 HN31        -2.8520     5.7800     0.1890 hn         1 478       0.420300
     69 HN32        -2.2450     5.4650     1.7380 hn         1 478       0.420300
     70 HO3         -1.3910     1.2240    -0.1640 ho         1 478       0.408000
@<TRIPOS>BOND
     1     1     4 1   
     2     1    34 1   
     3     1    36 1   
     4     1    37 1   
     5     2     4 1   
     6     2    25 1   
     7     2    38 1   
     8     2    39 1   
     9     3    26 1   
    10     3    29 1   
    11     3    30 2   
    12     4    29 1   
    13     4    40 1   
    14     5     6 1   
    15     5     7 1   
    16     5    26 1   
    17     5    41 1   
    18     6    14 1   
    19     6    31 1   
    20     6    42 1   
    21     7     8 1   
    22     7    43 1   
    23     7    44 1   
    24     8     9 ar  
    25     8    10 ar  
    26     9    11 ar  
    27     9    45 1   
    28    10    12 ar  
    29    10    46 1   
    30    11    13 ar  
    31    11    47 1   
    32    12    13 ar  
    33    12    48 1   
    34    13    49 1   
    35    14    27 1   
    36    14    50 1   
    37    14    51 1   
    38    15    16 1   
    39    15    27 1   
    40    15    52 1   
    41    15    53 1   
    42    16    23 1   
    43    16    24 1   
    44    16    54 1   
    45    17    18 ar  
    46    17    22 ar  
    47    17    35 1   
    48    18    19 ar  
    49    18    55 1   
    50    19    20 ar  
    51    19    56 1   
    52    20    21 ar  
    53    20    28 1   
    54    21    22 ar  
    55    21    57 1   
    56    22    58 1   
    57    23    59 1   
    58    23    60 1   
    59    23    61 1   
    60    24    62 1   
    61    24    63 1   
    62    24    64 1   
    63    25    34 1   
    64    25    65 1   
    65    25    66 1   
    66    26    67 1   
    67    27    35 1   
    68    28    68 1   
    69    28    69 1   
    70    31    70 1   
    71    32    35 2   
    72    33    35 2   
@<TRIPOS>SUBSTRUCTURE
     1 478         1 TEMP              0 ****  ****    0 ROOT
