@<TRIPOS>MOLECULE
479
   36    37     1     0     0
SMALL
No Charge or Current Charge


@<TRIPOS>ATOM
      1 C4          -1.6430    -0.1650     0.4910 c3         1 479      -0.169400
      2 C5          -2.8300     0.7760     0.7630 c          1 479       0.610700
      3 C6          -4.0420     0.6110    -0.0690 cc         1 479      -0.325600
      4 N1           5.3740     1.3660    -1.5880 nb         1 479      -0.666000
      5 C7          -5.1790     1.3740     0.0550 cd         1 479      -0.059000
      6 C8          -6.1960     1.0080    -0.8670 cd         1 479      -0.148000
      7 C9          -5.8420    -0.0300    -1.6930 cc         1 479      -0.230000
      8 C10          4.1600    -0.2570    -0.2390 ca         1 479      -0.155300
      9 C11          5.1190    -0.1430     0.7860 ca         1 479      -0.057000
     10 C12          6.2010     0.7310     0.5960 ca         1 479      -0.163000
     11 C13          6.2920     1.4620    -0.5990 ca         1 479       0.339900
     12 C14          4.3320     0.5230    -1.4040 ca         1 479       0.340900
     13 O1          -2.7700     1.6310     1.6380 o          1 479      -0.525100
     14 S           -4.2100    -0.5920    -1.3450 ss         1 479       0.245000
     15 C3          -0.3860     0.0380     1.3870 c3         1 479      -0.147400
     16 C2           0.7230    -0.9620     1.0450 c          1 479       0.598100
     17 O            0.6660    -2.1390     1.3690 o          1 479      -0.611100
     18 N            1.8000    -0.4310     0.3740 ns         1 479      -0.506900
     19 C1           2.9670    -1.1910    -0.0670 c3         1 479       0.166000
     20 C            2.6470    -2.0160    -1.3330 c3         1 479      -0.106100
     21 H1          -2.0180    -1.1940     0.5480 hc         1 479       0.080700
     22 H2          -1.3960    -0.0900    -0.5740 hc         1 479       0.080700
     23 H3          -5.2940     2.1750     0.7810 ha         1 479       0.150000
     24 H4          -7.1620     1.5030    -0.9130 ha         1 479       0.139000
     25 H5          -6.4140    -0.5070    -2.4790 h4         1 479       0.153000
     26 H6           5.0290    -0.7160     1.7070 ha         1 479       0.124000
     27 H7           6.9630     0.8450     1.3620 ha         1 479       0.127000
     28 H8           7.1220     2.1460    -0.7700 h4         1 479       0.021100
     29 H9           3.6100     0.4820    -2.2180 h4         1 479       0.017100
     30 H10         -0.0220     1.0630     1.2480 hc         1 479       0.071700
     31 H11         -0.6770    -0.1120     2.4340 hc         1 479       0.071700
     32 H12          1.7670     0.5600     0.1670 hn         1 479       0.315500
     33 H13          3.2180    -1.9080     0.7280 h1         1 479       0.081700
     34 H14          3.5430    -2.5420    -1.6830 hc         1 479       0.045700
     35 H15          1.8780    -2.7670    -1.1190 hc         1 479       0.045700
     36 H16          2.2780    -1.3780    -2.1440 hc         1 479       0.045700
@<TRIPOS>BOND
     1     1     2 1   
     2     1    15 1   
     3     1    21 1   
     4     1    22 1   
     5     2     3 1   
     6     2    13 2   
     7     3     5 2   
     8     3    14 1   
     9     4    11 ar  
    10     4    12 ar  
    11     5     6 1   
    12     5    23 1   
    13     6     7 2   
    14     6    24 1   
    15     7    14 1   
    16     7    25 1   
    17     8     9 ar  
    18     8    12 ar  
    19     8    19 1   
    20     9    10 ar  
    21     9    26 1   
    22    10    11 ar  
    23    10    27 1   
    24    11    28 1   
    25    12    29 1   
    26    15    16 1   
    27    15    30 1   
    28    15    31 1   
    29    16    17 2   
    30    16    18 1   
    31    18    19 1   
    32    18    32 1   
    33    19    20 1   
    34    19    33 1   
    35    20    34 1   
    36    20    35 1   
    37    20    36 1   
@<TRIPOS>SUBSTRUCTURE
     1 479         1 TEMP              0 ****  ****    0 ROOT
