@<TRIPOS>MOLECULE
479
   36    37     1     0     0
SMALL
abcg2


@<TRIPOS>ATOM
      1 C4          -1.7730    -0.0430     0.1080 c3         1 479      -0.169400
      2 C5          -2.8520     0.9930     0.2920 c          1 479       0.610700
      3 C6          -4.2410     0.5710     0.0560 cc         1 479      -0.325600
      4 N1           5.8400     1.3780    -0.7850 nb         1 479      -0.666000
      5 C7          -5.3560     1.3590     0.1850 cd         1 479      -0.059000
      6 C8          -6.5540     0.6700    -0.1060 cd         1 479      -0.148000
      7 C9          -6.3320    -0.6320    -0.4540 cc         1 479      -0.230000
      8 C10          4.2730    -0.3120    -0.1120 ca         1 479      -0.155300
      9 C11          5.0180    -0.5410     1.0380 ca         1 479      -0.057000
     10 C12          6.1730     0.1930     1.2590 ca         1 479      -0.163000
     11 C13          6.5410     1.1420     0.3180 ca         1 479       0.339900
     12 C14          4.7410     0.6630    -0.9890 ca         1 479       0.340900
     13 O1          -2.6120     2.1350     0.6260 o          1 479      -0.525100
     14 S           -4.6750    -1.0270    -0.4290 ss         1 479       0.245000
     15 C3          -0.3730     0.4910     0.3560 c3         1 479      -0.147400
     16 C2           0.6700    -0.6030     0.2470 c          1 479       0.598100
     17 O            0.4480    -1.7540     0.5980 o          1 479      -0.611100
     18 N            1.8610    -0.1980    -0.2240 ns         1 479      -0.506900
     19 C1           3.0040    -1.0820    -0.3900 c3         1 479       0.166000
     20 C            3.0080    -1.7490    -1.7630 c3         1 479      -0.106100
     21 H1          -1.9840    -0.8800     0.7790 hc         1 479       0.080700
     22 H2          -1.8530    -0.4480    -0.9070 hc         1 479       0.080700
     23 H3          -5.3120     2.3980     0.4810 ha         1 479       0.150000
     24 H4          -7.5370     1.1150    -0.0590 ha         1 479       0.139000
     25 H5          -7.0630    -1.3780    -0.7240 h4         1 479       0.153000
     26 H6           4.6970    -1.2890     1.7530 ha         1 479       0.124000
     27 H7           6.7770     0.0360     2.1420 ha         1 479       0.127000
     28 H8           7.4380     1.7340     0.4590 h4         1 479       0.021100
     29 H9           4.1990     0.8820    -1.9050 h4         1 479       0.017100
     30 H10         -0.1450     1.3070    -0.3310 hc         1 479       0.071700
     31 H11         -0.3030     0.9090     1.3640 hc         1 479       0.071700
     32 H12          1.9480     0.7520    -0.5490 hn         1 479       0.315500
     33 H13          2.9170    -1.8610     0.3690 h1         1 479       0.081700
     34 H14          3.8590    -2.4240    -1.8560 hc         1 479       0.045700
     35 H15          2.0980    -2.3320    -1.8990 hc         1 479       0.045700
     36 H16          3.0640    -1.0180    -2.5700 hc         1 479       0.045700
@<TRIPOS>BOND
     1     1     2 1   
     2     1    15 1   
     3     1    21 1   
     4     1    22 1   
     5     2     3 1   
     6     2    13 2   
     7     3     5 2   
     8     3    14 1   
     9     4    11 ar  
    10     4    12 ar  
    11     5     6 1   
    12     5    23 1   
    13     6     7 2   
    14     6    24 1   
    15     7    14 1   
    16     7    25 1   
    17     8     9 ar  
    18     8    12 ar  
    19     8    19 1   
    20     9    10 ar  
    21     9    26 1   
    22    10    11 ar  
    23    10    27 1   
    24    11    28 1   
    25    12    29 1   
    26    15    16 1   
    27    15    30 1   
    28    15    31 1   
    29    16    17 2   
    30    16    18 1   
    31    18    19 1   
    32    18    32 1   
    33    19    20 1   
    34    19    33 1   
    35    20    34 1   
    36    20    35 1   
    37    20    36 1   
@<TRIPOS>SUBSTRUCTURE
     1 479         1 TEMP              0 ****  ****    0 ROOT
