@<TRIPOS>MOLECULE
47A
   19    19     1     0     0
SMALL
abcg2


@<TRIPOS>ATOM
      1 C4           1.5620    -0.1750     0.0140 ca         1 47A      -0.164600
      2 C5           0.7710    -1.3240     0.0150 ca         1 47A      -0.066500
      3 C6           3.0460    -0.3230     0.0150 c          1 47A       0.576700
      4 C7           3.8830     0.9340    -0.0280 c3         1 47A       0.054800
      5 BR          -3.0870     0.1430     0.0240 br         1 47A      -0.088100
      6 C1          -1.2080     0.0150     0.0210 ca         1 47A       0.002100
      7 C2          -0.4460     1.1740     0.0200 ca         1 47A      -0.097500
      8 C3           0.9360     1.0700     0.0170 ca         1 47A      -0.066500
      9 C           -0.6100    -1.2390     0.0180 ca         1 47A      -0.097500
     10 O            3.5550    -1.4210     0.0230 o          1 47A      -0.496100
     11 N            5.2930     0.6450     0.0680 n8         1 47A      -0.979200
     12 H1           1.2340    -2.3010     0.0130 ha         1 47A       0.127500
     13 H2           3.5830     1.4920    -0.9290 h1         1 47A       0.047700
     14 H3           3.5930     1.5700     0.8140 h1         1 47A       0.047700
     15 H4          -0.9110     2.1510     0.0220 ha         1 47A       0.133500
     16 H5           1.5150     1.9840     0.0150 ha         1 47A       0.127500
     17 H6          -1.2060    -2.1410     0.0180 ha         1 47A       0.133500
     18 H7           5.6120     0.1850    -0.7750 hn         1 47A       0.402500
     19 H8           5.8020     1.5170     0.1200 hn         1 47A       0.402500
@<TRIPOS>BOND
     1     1     2 ar  
     2     1     3 1   
     3     1     8 ar  
     4     2     9 ar  
     5     2    12 1   
     6     3     4 1   
     7     3    10 2   
     8     4    11 1   
     9     4    13 1   
    10     4    14 1   
    11     5     6 1   
    12     6     7 ar  
    13     6     9 ar  
    14     7     8 ar  
    15     7    15 1   
    16     8    16 1   
    17     9    17 1   
    18    11    18 1   
    19    11    19 1   
@<TRIPOS>SUBSTRUCTURE
     1 47A         1 TEMP              0 ****  ****    0 ROOT
