@<TRIPOS>MOLECULE
47A
   19    19     1     0     0
SMALL
No Charge or Current Charge


@<TRIPOS>ATOM
      1 C4           1.5360    -0.2140    -0.0200 ca         1 47A      -0.164600
      2 C5           0.7160    -1.3670     0.0200 ca         1 47A      -0.066500
      3 C6           3.0480    -0.3640    -0.0550 c          1 47A       0.576700
      4 C7           3.9390     0.9270     0.0110 c3         1 47A       0.054800
      5 Br          -3.1900     0.1730     0.0890 br         1 47A      -0.088100
      6 C1          -1.2840     0.0160     0.0450 ca         1 47A       0.002100
      7 C2          -0.4870     1.1700     0.0030 ca         1 47A      -0.097500
      8 C3           0.9150     1.0590    -0.0300 ca         1 47A      -0.066500
      9 C           -0.6840    -1.2510     0.0530 ca         1 47A      -0.097500
     10 O            3.5600    -1.4770    -0.1430 o          1 47A      -0.496100
     11 N            5.4320     0.7500     0.1360 n8         1 47A      -0.979200
     12 H1           1.1600    -2.3610     0.0280 ha         1 47A       0.127500
     13 H2           3.7320     1.5080    -0.8980 h1         1 47A       0.047700
     14 H3           3.5940     1.5200     0.8700 h1         1 47A       0.047700
     15 H4          -0.9530     2.1520    -0.0050 ha         1 47A       0.133500
     16 H5           1.5020     1.9740    -0.0660 ha         1 47A       0.127500
     17 H6          -1.3020    -2.1460     0.0850 ha         1 47A       0.133500
     18 H7           5.7850     0.2240    -0.6750 hn         1 47A       0.402500
     19 H8           5.8990     1.6640     0.0560 hn         1 47A       0.402500
@<TRIPOS>BOND
     1     1     2 ar  
     2     1     3 1   
     3     1     8 ar  
     4     2     9 ar  
     5     2    12 1   
     6     3     4 1   
     7     3    10 2   
     8     4    11 1   
     9     4    13 1   
    10     4    14 1   
    11     5     6 1   
    12     6     7 ar  
    13     6     9 ar  
    14     7     8 ar  
    15     7    15 1   
    16     8    16 1   
    17     9    17 1   
    18    11    18 1   
    19    11    19 1   
@<TRIPOS>SUBSTRUCTURE
     1 47A         1 TEMP              0 ****  ****    0 ROOT
