@<TRIPOS>MOLECULE
47B
   23    25     1     0     0
SMALL
No Charge or Current Charge


@<TRIPOS>ATOM
      1 C4          -1.6700     0.8870    -0.2400 ca         1 47B      -0.090000
      2 C5          -3.0540     0.6610    -0.3100 ca         1 47B       0.132000
      3 C6           0.6630     0.0900     0.2010 cc         1 47B       0.295500
      4 N1           2.3940     1.6410     0.6900 nd         1 47B      -0.223000
      5 C7           3.2280     0.5990     0.3480 cd         1 47B       0.294500
      6 C8           4.9640    -0.5590    -0.1570 cc         1 47B      -0.011400
      7 N2           4.5450     0.6830     0.2930 nc         1 47B      -0.231600
      8 C9           3.9040    -1.4210    -0.3890 cd         1 47B      -0.279100
      9 C10          1.5050    -0.9600    -0.1760 cd         1 47B      -0.109000
     10 N3           2.8400    -0.6430    -0.0180 na         1 47B      -0.027400
     11 F1          -3.8800     1.6810    -0.6390 f          1 47B      -0.154000
     12 C           -3.5770    -0.6140    -0.0350 ca         1 47B       0.148000
     13 F           -4.9100    -0.8370    -0.0970 f          1 47B      -0.153000
     14 C3          -0.7830    -0.1670     0.0870 ca         1 47B      -0.126500
     15 C2          -1.3270    -1.4400     0.3880 ca         1 47B      -0.092000
     16 C1          -2.7140    -1.6620     0.3180 ca         1 47B      -0.134000
     17 N            1.0940     1.3610     0.6250 nc         1 47B      -0.289000
     18 H1          -1.2900     1.8830    -0.4550 ha         1 47B       0.163000
     19 H2           6.0250    -0.7500    -0.3000 h4         1 47B       0.237000
     20 H3           3.8450    -2.4430    -0.7560 h4         1 47B       0.241000
     21 H4           1.2230    -1.9350    -0.5500 h4         1 47B       0.158000
     22 H5          -0.6820    -2.2620     0.6900 ha         1 47B       0.114000
     23 H6          -3.1220    -2.6440     0.5460 ha         1 47B       0.138000
@<TRIPOS>BOND
     1     1     2 ar  
     2     1    14 ar  
     3     1    18 1   
     4     2    11 1   
     5     2    12 ar  
     6     3     9 2   
     7     3    14 1   
     8     3    17 1   
     9     4     5 1   
    10     4    17 2   
    11     5     7 2   
    12     5    10 1   
    13     6     7 1   
    14     6     8 2   
    15     6    19 1   
    16     8    10 1   
    17     8    20 1   
    18     9    10 1   
    19     9    21 1   
    20    12    13 1   
    21    12    16 ar  
    22    14    15 ar  
    23    15    16 ar  
    24    15    22 1   
    25    16    23 1   
@<TRIPOS>SUBSTRUCTURE
     1 47B         1 TEMP              0 ****  ****    0 ROOT
