@<TRIPOS>MOLECULE
47B
   23    25     1     0     0
SMALL
bcc


@<TRIPOS>ATOM
      1 C4          -1.6710     0.8940     0.0140 ca         1 47B      -0.108000
      2 C5          -3.0350     0.7160     0.0220 ca         1 47B       0.096900
      3 C6           0.6390    -0.0010     0.0070 cc         1 47B       0.360800
      4 N1           2.2850     1.6090     0.0270 nd         1 47B      -0.223000
      5 C7           3.2090     0.6460     0.0030 cd         1 47B       0.294500
      6 C8           5.0000    -0.4680    -0.0290 cc         1 47B       0.038600
      7 N2           4.5170     0.7880    -0.0030 nc         1 47B      -0.231600
      8 C9           3.9980    -1.4140    -0.0410 cd         1 47B      -0.229100
      9 C10          1.5420    -1.0270    -0.0190 cd         1 47B      -0.141600
     10 N3           2.8480    -0.6960    -0.0210 na         1 47B      -0.078100
     11 F1          -3.8470     1.7730     0.0250 f          1 47B      -0.118900
     12 C           -3.5870    -0.5550     0.0290 ca         1 47B       0.112900
     13 F           -4.9100    -0.6990     0.0380 f          1 47B      -0.117900
     14 C3          -0.8210    -0.2120     0.0130 ca         1 47B      -0.126500
     15 C2          -1.3860    -1.4860     0.0190 ca         1 47B      -0.110000
     16 C1          -2.7600    -1.6580     0.0270 ca         1 47B      -0.152000
     17 N            1.0470     1.2980     0.0290 nc         1 47B      -0.289000
     18 H1          -1.2690     1.8980     0.0080 ha         1 47B       0.181000
     19 H2           6.0600    -0.6670    -0.0400 h4         1 47B       0.187000
     20 H3           4.0210    -2.4890    -0.0620 h4         1 47B       0.191000
     21 H4           1.3030    -2.0780    -0.0410 h4         1 47B       0.176000
     22 H5          -0.7680    -2.3730     0.0220 ha         1 47B       0.132000
     23 H6          -3.1940    -2.6500     0.0340 ha         1 47B       0.156000
@<TRIPOS>BOND
     1     1     2 ar  
     2     1    14 ar  
     3     1    18 1   
     4     2    11 1   
     5     2    12 ar  
     6     3     9 2   
     7     3    14 1   
     8     3    17 1   
     9     4     5 1   
    10     4    17 2   
    11     5     7 2   
    12     5    10 1   
    13     6     7 1   
    14     6     8 2   
    15     6    19 1   
    16     8    10 1   
    17     8    20 1   
    18     9    10 1   
    19     9    21 1   
    20    12    13 1   
    21    12    16 ar  
    22    14    15 ar  
    23    15    16 ar  
    24    15    22 1   
    25    16    23 1   
@<TRIPOS>SUBSTRUCTURE
     1 47B         1 TEMP              0 ****  ****    0 ROOT
