@<TRIPOS>MOLECULE
47D
   32    34     1     0     0
SMALL
abcg2


@<TRIPOS>ATOM
      1 C1           3.5190     4.5460    -3.6810 ca         1 47D       0.117400
      2 N            3.1800     3.2990    -3.2150 nc         1 47D      -0.484100
      3 C2           3.5140     2.3880    -4.0520 cd         1 47D       0.404200
      4 C3           3.3140     0.9230    -3.8210 c3         1 47D       0.080700
      5 N2           2.3520     0.6860    -2.7690 n          1 47D      -0.366400
      6 C4           1.0210     0.7950    -3.1300 c          1 47D       0.622000
      7 O1           0.6910     1.0630    -4.2660 o          1 47D      -0.551000
      8 N3           0.1080     0.5430    -2.1380 n          1 47D      -0.245000
      9 C5          -1.2970     0.7610    -2.4360 c3         1 47D      -0.068000
     10 C6          -1.6880     2.2560    -2.3890 c          1 47D       0.716000
     11 O2          -2.8550     2.4930    -2.7500 o          1 47D      -0.708500
     12 O3          -0.8260     3.0490    -1.9840 o          1 47D      -0.708500
     13 C7           0.5040     0.3670    -0.8540 cc         1 47D       0.053600
     14 C8           1.7950     0.3330    -0.4810 cd         1 47D      -0.442200
     15 C9           2.8260     0.5180    -1.4640 c          1 47D       0.608200
     16 O4           4.0220     0.5270    -1.2320 o          1 47D      -0.580000
     17 S            4.2840     2.9380    -5.5190 ss         1 47D      -0.009200
     18 C10          4.1470     4.5610    -4.9350 ca         1 47D      -0.182000
     19 C12          4.5530     5.7490    -5.5310 ca         1 47D      -0.072000
     20 C13          4.3210     6.9320    -4.8550 ca         1 47D      -0.108000
     21 C14          3.6950     6.9140    -3.6060 ca         1 47D       0.109000
     22 CL           3.4260     8.4190    -2.7900 cl         1 47D      -0.215000
     23 C15          3.2880     5.7420    -3.0030 ca         1 47D      -0.029000
     24 H31          2.9940     0.4300    -4.7380 h1         1 47D       0.080700
     25 H32          4.2640     0.4740    -3.5320 h1         1 47D       0.080700
     26 H51         -1.8780     0.2100    -1.6960 h1         1 47D       0.047200
     27 H52         -1.5350     0.3290    -3.4070 h1         1 47D       0.047200
     28 H7          -0.2930     0.2410    -0.1350 h4         1 47D       0.200000
     29 H8           2.0710     0.1810     0.5510 ha         1 47D       0.204000
     30 H12          5.0380     5.7600    -6.4970 ha         1 47D       0.118000
     31 H13          4.6230     7.8720    -5.2950 ha         1 47D       0.119000
     32 H15          2.8030     5.7370    -2.0360 ha         1 47D       0.160000
@<TRIPOS>BOND
     1     1     2 1   
     2     1    18 ar  
     3     1    23 ar  
     4     2     3 2   
     5     3     4 1   
     6     3    17 1   
     7     4     5 1   
     8     4    24 1   
     9     4    25 1   
    10     5     6 1   
    11     5    15 1   
    12     6     7 2   
    13     6     8 1   
    14     8     9 1   
    15     8    13 1   
    16     9    10 1   
    17     9    26 1   
    18     9    27 1   
    19    10    11 1   
    20    10    12 1   
    21    13    14 2   
    22    13    28 1   
    23    14    15 1   
    24    14    29 1   
    25    15    16 2   
    26    17    18 1   
    27    18    19 ar  
    28    19    20 ar  
    29    19    30 1   
    30    20    21 ar  
    31    20    31 1   
    32    21    22 1   
    33    21    23 ar  
    34    23    32 1   
@<TRIPOS>SUBSTRUCTURE
     1 47D         1 TEMP              0 ****  ****    0 ROOT
