@<TRIPOS>MOLECULE
47D
   32    34     1     0     0
SMALL
No Charge or Current Charge


@<TRIPOS>ATOM
      1 C1           3.9280     4.6520    -3.5860 ca         1 47D       0.117400
      2 N            3.8440     3.4160    -2.9520 nc         1 47D      -0.484100
      3 C2           3.6110     2.5120    -3.9190 cd         1 47D       0.404200
      4 C3           3.4630     1.0460    -3.5840 c3         1 47D       0.080700
      5 N2           2.3880     0.7360    -2.5910 n          1 47D      -0.366400
      6 C4           1.0540     0.8140    -3.0250 c          1 47D       0.622000
      7 O1           0.7890     1.1060    -4.1850 o          1 47D      -0.551000
      8 N3           0.0320     0.5390    -2.0870 n          1 47D      -0.245000
      9 C5          -1.3910     0.6250    -2.5300 c3         1 47D      -0.068000
     10 C6          -1.8990     2.0600    -2.8000 c          1 47D       0.716000
     11 O2          -2.5640     2.2560    -3.8080 o          1 47D      -0.708500
     12 O3          -1.6320     2.9340    -1.9870 o          1 47D      -0.708500
     13 C7           0.3330     0.2160    -0.7710 cc         1 47D       0.053600
     14 C8           1.6430     0.1550    -0.3730 cd         1 47D      -0.442200
     15 C9           2.7590     0.4190    -1.2800 c          1 47D       0.608200
     16 O4           3.9190     0.3590    -0.9000 o          1 47D      -0.580000
     17 S            3.4890     3.0640    -5.6090 ss         1 47D      -0.009200
     18 C10          3.7700     4.6680    -4.9620 ca         1 47D      -0.182000
     19 C12          3.8340     5.8530    -5.7110 ca         1 47D      -0.072000
     20 C13          4.0670     7.0630    -5.0320 ca         1 47D      -0.108000
     21 C14          4.2310     7.0630    -3.6320 ca         1 47D       0.109000
     22 Cl           4.5230     8.5800    -2.7890 cl         1 47D      -0.215000
     23 C15          4.1610     5.8590    -2.9050 ca         1 47D      -0.029000
     24 H31          3.2540     0.4980    -4.5110 h1         1 47D       0.080700
     25 H32          4.4350     0.6810    -3.2310 h1         1 47D       0.080700
     26 H51         -2.0450     0.1830    -1.7690 h1         1 47D       0.047200
     27 H52         -1.5130     0.0360    -3.4480 h1         1 47D       0.047200
     28 H7          -0.5400     0.0370    -0.1480 h4         1 47D       0.200000
     29 H8           1.9230    -0.0920     0.6450 ha         1 47D       0.204000
     30 H12          3.7060     5.8380    -6.7910 ha         1 47D       0.118000
     31 H13          4.1220     7.9960    -5.5860 ha         1 47D       0.119000
     32 H15          4.2870     5.8620    -1.8270 ha         1 47D       0.160000
@<TRIPOS>BOND
     1     1     2 1   
     2     1    18 ar  
     3     1    23 ar  
     4     2     3 2   
     5     3     4 1   
     6     3    17 1   
     7     4     5 1   
     8     4    24 1   
     9     4    25 1   
    10     5     6 1   
    11     5    15 1   
    12     6     7 2   
    13     6     8 1   
    14     8     9 1   
    15     8    13 1   
    16     9    10 1   
    17     9    26 1   
    18     9    27 1   
    19    10    11 1   
    20    10    12 1   
    21    13    14 2   
    22    13    28 1   
    23    14    15 1   
    24    14    29 1   
    25    15    16 2   
    26    17    18 1   
    27    18    19 ar  
    28    19    20 ar  
    29    19    30 1   
    30    20    21 ar  
    31    20    31 1   
    32    21    22 1   
    33    21    23 ar  
    34    23    32 1   
@<TRIPOS>SUBSTRUCTURE
     1 47D         1 TEMP              0 ****  ****    0 ROOT
