@<TRIPOS>MOLECULE
47E
   18    18     1     0     0
SMALL
No Charge or Current Charge


@<TRIPOS>ATOM
      1 C4          -1.2490     2.3370     0.3620 ca         1 47E      -0.118000
      2 C5          -2.2160     1.4180    -0.0780 ca         1 47E      -0.140000
      3 C6          -1.8710     0.0670    -0.2450 ca         1 47E       0.116000
      4 C7          -0.5640    -0.3680     0.0260 ca         1 47E      -0.094000
      5 Cl          -3.0820    -1.0830    -0.7960 cl         1 47E      -0.259000
      6 C3           0.0610     1.9030     0.6350 ca         1 47E      -0.093000
      7 C2           0.4140     0.5480     0.4680 ca         1 47E      -0.019300
      8 C1           1.8410     0.0820     0.7630 c3         1 47E       0.041600
      9 O2           1.8380    -0.8770     1.8550 oh         1 47E      -0.702000
     10 C            2.5230    -0.4930    -0.5310 c          1 47E       0.700000
     11 O            2.6790    -1.7070    -0.5980 o          1 47E      -0.705000
     12 O1           2.8880     0.2860    -1.4010 o          1 47E      -0.705000
     13 H1          -1.5130     3.3840     0.4930 ha         1 47E       0.095000
     14 H2          -3.2290     1.7520    -0.2900 ha         1 47E       0.105000
     15 H3          -0.3110    -1.4170    -0.1050 ha         1 47E       0.137000
     16 H4           0.8030     2.6220     0.9760 ha         1 47E       0.122000
     17 H5           2.4360     0.9560     1.0570 h1         1 47E       0.041700
     18 H6           2.1010    -1.7350     1.4380 ho         1 47E       0.478000
@<TRIPOS>BOND
     1     1     2 ar  
     2     1     6 ar  
     3     1    13 1   
     4     2     3 ar  
     5     2    14 1   
     6     3     4 ar  
     7     3     5 1   
     8     4     7 ar  
     9     4    15 1   
    10     6     7 ar  
    11     6    16 1   
    12     7     8 1   
    13     8     9 1   
    14     8    10 1   
    15     8    17 1   
    16     9    18 1   
    17    10    11 1   
    18    10    12 1   
@<TRIPOS>SUBSTRUCTURE
     1 47E         1 TEMP              0 ****  ****    0 ROOT
