@<TRIPOS>MOLECULE
47E
   18    18     1     0     0
SMALL
abcg2


@<TRIPOS>ATOM
      1 C4          -1.1090     2.3080     0.0660 ca         1 47E      -0.118000
      2 C5          -2.1700     1.4390    -0.1560 ca         1 47E      -0.140000
      3 C6          -1.9400     0.0800    -0.0200 ca         1 47E       0.116000
      4 C7          -0.6950    -0.4230     0.3260 ca         1 47E      -0.094000
      5 CL          -3.2520    -1.0300    -0.2840 cl         1 47E      -0.259000
      6 C3           0.1430     1.8230     0.4080 ca         1 47E      -0.093000
      7 C2           0.3630     0.4540     0.5390 ca         1 47E      -0.019300
      8 C1           1.7370    -0.0680     0.8750 c3         1 47E       0.041600
      9 O2           1.6940    -1.3240     1.4850 oh         1 47E      -0.702000
     10 C            2.5900    -0.1580    -0.4260 c          1 47E       0.700000
     11 O            3.0010    -1.3110    -0.6830 o          1 47E      -0.705000
     12 O1           2.7780     0.8840    -1.0630 o          1 47E      -0.705000
     13 H1          -1.2710     3.3740    -0.0260 ha         1 47E       0.095000
     14 H2          -3.1480     1.8130    -0.4220 ha         1 47E       0.105000
     15 H3          -0.5520    -1.4890     0.4340 ha         1 47E       0.137000
     16 H4           0.9550     2.5170     0.5860 ha         1 47E       0.122000
     17 H5           2.2260     0.6610     1.5370 h1         1 47E       0.041700
     18 H6           2.1970    -1.8750     0.8530 ho         1 47E       0.478000
@<TRIPOS>BOND
     1     1     2 ar  
     2     1     6 ar  
     3     1    13 1   
     4     2     3 ar  
     5     2    14 1   
     6     3     4 ar  
     7     3     5 1   
     8     4     7 ar  
     9     4    15 1   
    10     6     7 ar  
    11     6    16 1   
    12     7     8 1   
    13     8     9 1   
    14     8    10 1   
    15     8    17 1   
    16     9    18 1   
    17    10    11 1   
    18    10    12 1   
@<TRIPOS>SUBSTRUCTURE
     1 47E         1 TEMP              0 ****  ****    0 ROOT
