@<TRIPOS>MOLECULE
47F
   37    39     1     0     0
SMALL
No Charge or Current Charge


@<TRIPOS>ATOM
      1 N1          21.7220    38.5270    11.8110 ns         1 47F      -0.150000
      2 C4          22.1100    40.1820     8.4430 ca         1 47F      -0.056500
      3 C5          22.2270    39.9580     9.8260 ca         1 47F      -0.160500
      4 C6          21.6460    38.8200    10.4210 ca         1 47F      -0.010000
      5 C7          22.3180    39.1890    12.8780 c          1 47F       0.609100
      6 C8          22.1380    38.4860    14.2210 c3         1 47F      -0.184100
      7 C10         21.8160    40.5900     5.4820 cc         1 47F      -0.286000
      8 C13         20.0770    37.0280     1.1280 ca         1 47F      -0.148000
      9 C15         19.7780    38.2070    -0.9800 ca         1 47F      -0.130000
     10 C17         19.6990    39.4260     1.1250 ca         1 47F      -0.148000
     11 C1          20.9480    37.9160     9.6030 ca         1 47F      -0.160500
     12 C11         20.6100    39.0280     4.1210 cc         1 47F       0.710300
     13 C12         19.9370    38.2340     1.8330 ca         1 47F       0.301000
     14 C14         20.0020    37.0120    -0.2770 ca         1 47F      -0.081000
     15 C16         19.6230    39.4150    -0.2790 ca         1 47F      -0.081000
     16 C2          20.8290    38.1370     8.2200 ca         1 47F      -0.056500
     17 C3          21.4090    39.2750     7.6170 ca         1 47F      -0.151500
     18 C9          21.2840    39.5090     6.1580 cd         1 47F       0.398500
     19 N2          20.5960    38.6060     5.3560 nd         1 47F      -0.734000
     20 O1          22.9390    40.2410    12.7890 o          1 47F      -0.575100
     21 S1          21.4680    40.5060     3.7790 ss         1 47F      -0.071400
     22 H1          21.2510    37.6710    12.0720 hn         1 47F       0.148000
     23 H2          19.8140    37.3280     3.6640 hn         1 47F       0.508000
     24 H3          22.5730    41.0720     8.0250 ha         1 47F       0.123000
     25 H4          22.7760    40.6860    10.4150 ha         1 47F       0.127500
     26 H5          22.6150    39.0250    15.0470 hc         1 47F       0.064367
     27 H6          21.0680    38.3320    14.4020 hc         1 47F       0.064367
     28 H7          22.5100    37.4580    14.1380 hc         1 47F       0.064367
     29 H8          22.3880    41.4220     5.8640 h4         1 47F       0.161000
     30 H10         19.7180    38.1970    -2.0660 ha         1 47F       0.117000
     31 H11         19.5570    40.3610     1.6580 ha         1 47F       0.122500
     32 H12         20.4900    37.0300    10.0390 ha         1 47F       0.127500
     33 H13         20.1170    36.0750    -0.8180 ha         1 47F       0.116000
     34 H14         19.4390    40.3400    -0.8220 ha         1 47F       0.116000
     35 H15         20.2800    37.4120     7.6220 ha         1 47F       0.123000
     36 N3          20.0070    38.2200     3.2210 nu         1 47F      -0.938900
     37 H9          20.2520    36.1000     1.6650 ha         1 47F       0.122500
@<TRIPOS>BOND
     1     1     4 1   
     2     1     5 1   
     3     1    22 1   
     4     2     3 ar  
     5     2    17 ar  
     6     2    24 1   
     7     3     4 ar  
     8     3    25 1   
     9     4    11 ar  
    10     5     6 1   
    11     5    20 2   
    12     6    26 1   
    13     6    27 1   
    14     6    28 1   
    15     7    18 2   
    16     7    21 1   
    17     7    29 1   
    18     8    13 ar  
    19     8    14 ar  
    20     8    37 1   
    21     9    14 ar  
    22     9    15 ar  
    23     9    30 1   
    24    10    13 ar  
    25    10    15 ar  
    26    10    31 1   
    27    11    16 ar  
    28    11    32 1   
    29    12    19 2   
    30    12    21 1   
    31    12    36 1   
    32    13    36 1   
    33    14    33 1   
    34    15    34 1   
    35    16    17 ar  
    36    16    35 1   
    37    17    18 1   
    38    18    19 1   
    39    23    36 1   
@<TRIPOS>SUBSTRUCTURE
     1 47F         1 TEMP              0 ****  ****    0 ROOT
