@<TRIPOS>MOLECULE
47F
   37    39     1     0     0
SMALL
abcg2


@<TRIPOS>ATOM
      1 N1          21.6650    38.5720    11.7790 ns         1 47F      -0.150000
      2 C4          22.1860    40.0610     8.4140 ca         1 47F      -0.056500
      3 C5          22.2920    39.8930     9.7840 ca         1 47F      -0.160500
      4 C6          21.6230    38.8380    10.4110 ca         1 47F      -0.010000
      5 C7          22.2890    39.2560    12.7790 c          1 47F       0.609100
      6 C8          22.1130    38.6220    14.1360 c3         1 47F      -0.184100
      7 C10         21.7890    40.4440     5.4520 cc         1 47F      -0.286000
      8 C13         20.1820    37.0460     1.0200 ca         1 47F      -0.148000
      9 C15         19.7930    38.4390    -0.9060 ca         1 47F      -0.130000
     10 C17         19.6470    39.3750     1.3130 ca         1 47F      -0.148000
     11 C1          20.8590    37.9760     9.6200 ca         1 47F      -0.160500
     12 C11         20.6090    38.7580     4.1730 cc         1 47F       0.710300
     13 C12         19.9720    38.1370     1.8650 ca         1 47F       0.301000
     14 C14         20.0840    37.1970    -0.3530 ca         1 47F      -0.081000
     15 C16         19.5760    39.5210    -0.0660 ca         1 47F      -0.081000
     16 C2          20.7620    38.1560     8.2540 ca         1 47F      -0.056500
     17 C3          21.4210    39.2090     7.6190 ca         1 47F      -0.151500
     18 C9          21.3030    39.3970     6.1690 cd         1 47F       0.398500
     19 N2          20.6320    38.4540     5.4320 nd         1 47F      -0.734000
     20 O1          22.9340    40.2720    12.6020 o          1 47F      -0.575100
     21 S1          21.4130    40.2520     3.7800 ss         1 47F      -0.071400
     22 H1          21.1540    37.7490    12.0630 hn         1 47F       0.148000
     23 H2          19.8860    37.0000     3.5810 hn         1 47F       0.508000
     24 H3          22.7270    40.8850     7.9650 ha         1 47F       0.123000
     25 H4          22.8970    40.5810    10.3500 ha         1 47F       0.127500
     26 H5          22.5410    39.2590    14.9050 hc         1 47F       0.064367
     27 H6          21.0590    38.4550    14.3620 hc         1 47F       0.064367
     28 H7          22.6100    37.6520    14.1700 hc         1 47F       0.064367
     29 H8          22.3180    41.3210     5.7900 h4         1 47F       0.161000
     30 H10         19.7280    38.5580    -1.9800 ha         1 47F       0.117000
     31 H11         19.4160    40.2220     1.9460 ha         1 47F       0.122500
     32 H12         20.3320    37.1500    10.0840 ha         1 47F       0.127500
     33 H13         20.2490    36.3410    -0.9950 ha         1 47F       0.116000
     34 H14         19.3260    40.4890    -0.4800 ha         1 47F       0.116000
     35 H15         20.1620    37.4680     7.6750 ha         1 47F       0.123000
     36 N3          20.0550    37.9370     3.2450 nu         1 47F      -0.938900
     37 H9          20.4270    36.0790     1.4440 ha         1 47F       0.122500
@<TRIPOS>BOND
     1     1     4 1   
     2     1     5 1   
     3     1    22 1   
     4     2     3 ar  
     5     2    17 ar  
     6     2    24 1   
     7     3     4 ar  
     8     3    25 1   
     9     4    11 ar  
    10     5     6 1   
    11     5    20 2   
    12     6    26 1   
    13     6    27 1   
    14     6    28 1   
    15     7    18 2   
    16     7    21 1   
    17     7    29 1   
    18     8    13 ar  
    19     8    14 ar  
    20     8    37 1   
    21     9    14 ar  
    22     9    15 ar  
    23     9    30 1   
    24    10    13 ar  
    25    10    15 ar  
    26    10    31 1   
    27    11    16 ar  
    28    11    32 1   
    29    12    19 2   
    30    12    21 1   
    31    12    36 1   
    32    13    36 1   
    33    14    33 1   
    34    15    34 1   
    35    16    17 ar  
    36    16    35 1   
    37    17    18 1   
    38    18    19 1   
    39    23    36 1   
@<TRIPOS>SUBSTRUCTURE
     1 47F         1 TEMP              0 ****  ****    0 ROOT
