@<TRIPOS>MOLECULE
47G
   22    22     1     0     0
SMALL
No Charge or Current Charge


@<TRIPOS>ATOM
      1 C4           1.5920    -0.1800     0.3200 ca         1 47G      -0.082300
      2 C5           0.8450    -1.3740     0.2720 ca         1 47G      -0.093000
      3 C6           3.1090    -0.2270     0.4570 c3         1 47G       0.201100
      4 C7          -3.4520    -1.1630    -0.0980 c3         1 47G       0.157900
      5 O           -1.1190     2.3000     0.0560 oh         1 47G      -0.537100
      6 C2          -0.4770     1.0970     0.1260 ca         1 47G       0.119100
      7 C1          -1.2260    -0.0960     0.0780 ca         1 47G       0.044100
      8 O1          -2.6030    -0.0000    -0.0410 os         1 47G      -0.368100
      9 C3           0.9220     1.0570     0.2460 ca         1 47G      -0.128000
     10 C           -0.5560    -1.3380     0.1510 ca         1 47G      -0.155000
     11 N            3.7660    -0.3680    -0.8550 n8         1 47G      -1.000200
     12 H1           1.3550    -2.3340     0.3260 ha         1 47G       0.133000
     13 H2           3.4680     0.6940     0.9370 h1         1 47G       0.035700
     14 H3           3.3990    -1.0760     1.0930 h1         1 47G       0.035700
     15 H4          -3.3510    -1.7650     0.8140 h1         1 47G       0.041033
     16 H5          -4.5030    -0.8620    -0.1910 h1         1 47G       0.041033
     17 H6          -3.2000    -1.7880    -0.9640 h1         1 47G       0.041033
     18 H7          -2.0780     2.0970    -0.0230 ho         1 47G       0.480000
     19 H8           1.4840     1.9870     0.2830 ha         1 47G       0.126000
     20 H9          -1.1000    -2.2780     0.1170 ha         1 47G       0.116000
     21 H10          3.5390     0.4560    -1.4240 hn         1 47G       0.396500
     22 H11          4.7830    -0.3020    -0.7260 hn         1 47G       0.396500
@<TRIPOS>BOND
     1     1     2 ar  
     2     1     3 1   
     3     1     9 ar  
     4     2    10 ar  
     5     2    12 1   
     6     3    11 1   
     7     3    13 1   
     8     3    14 1   
     9     4     8 1   
    10     4    15 1   
    11     4    16 1   
    12     4    17 1   
    13     5     6 1   
    14     5    18 1   
    15     6     7 ar  
    16     6     9 ar  
    17     7     8 1   
    18     7    10 ar  
    19     9    19 1   
    20    10    20 1   
    21    11    21 1   
    22    11    22 1   
@<TRIPOS>SUBSTRUCTURE
     1 47G         1 TEMP              0 ****  ****    0 ROOT
