@<TRIPOS>MOLECULE
47G
   22    22     1     0     0
SMALL
abcg2


@<TRIPOS>ATOM
      1 C4           1.5640    -0.0110     0.2110 ca         1 47G      -0.082300
      2 C5           0.9000    -1.1940    -0.0680 ca         1 47G      -0.093000
      3 C6           3.0690     0.0660     0.2970 c3         1 47G       0.201100
      4 C7          -3.3280    -1.1830    -0.1650 c3         1 47G       0.157900
      5 O           -1.2600     2.2540     0.6280 oh         1 47G      -0.537100
      6 C2          -0.5740     1.1140     0.4010 ca         1 47G       0.119100
      7 C1          -1.2370    -0.0920     0.1180 ca         1 47G       0.044100
      8 O1          -2.5880    -0.0070     0.0930 os         1 47G      -0.368100
      9 C3           0.8080     1.1410     0.4400 ca         1 47G      -0.128000
     10 C           -0.4930    -1.2360    -0.1150 ca         1 47G      -0.155000
     11 N            3.7220    -1.0010    -0.4380 n8         1 47G      -1.000200
     12 H1           1.4640    -2.0970    -0.2590 ha         1 47G       0.133000
     13 H2           3.3820     1.0730    -0.0110 h1         1 47G       0.035700
     14 H3           3.3640    -0.0250     1.3480 h1         1 47G       0.035700
     15 H4          -3.1470    -1.9500     0.5930 h1         1 47G       0.041033
     16 H5          -4.3780    -0.9010    -0.1370 h1         1 47G       0.041033
     17 H6          -3.1000    -1.5990    -1.1490 h1         1 47G       0.041033
     18 H7          -2.2080     2.0900     0.5570 ho         1 47G       0.480000
     19 H8           1.3040     2.0820     0.6520 ha         1 47G       0.126000
     20 H9          -0.9820    -2.1750    -0.3400 ha         1 47G       0.116000
     21 H10          3.5960    -0.8560    -1.4310 hn         1 47G       0.396500
     22 H11          4.7200    -0.9550    -0.2730 hn         1 47G       0.396500
@<TRIPOS>BOND
     1     1     2 ar  
     2     1     3 1   
     3     1     9 ar  
     4     2    10 ar  
     5     2    12 1   
     6     3    11 1   
     7     3    13 1   
     8     3    14 1   
     9     4     8 1   
    10     4    15 1   
    11     4    16 1   
    12     4    17 1   
    13     5     6 1   
    14     5    18 1   
    15     6     7 ar  
    16     6     9 ar  
    17     7     8 1   
    18     7    10 ar  
    19     9    19 1   
    20    10    20 1   
    21    11    21 1   
    22    11    22 1   
@<TRIPOS>SUBSTRUCTURE
     1 47G         1 TEMP              0 ****  ****    0 ROOT
