@<TRIPOS>MOLECULE
47H
   31    33     1     0     0
SMALL
bcc


@<TRIPOS>ATOM
      1 C4          -0.3190    -0.6790    -0.2640 ca         1 47H       0.186600
      2 C5          -0.2350     0.7140    -0.0790 ca         1 47H      -0.126800
      3 C6           1.0210     1.3320     0.0530 ca         1 47H      -0.057000
      4 C7           2.1390     0.5420     0.0070 ca         1 47H      -0.006900
      5 C8           2.0470    -0.8270    -0.1720 ca         1 47H       0.102100
      6 C9           0.8430    -1.4710    -0.3070 ca         1 47H      -0.195000
      7 C10          4.1630    -0.3200     0.2290 c5         1 47H       0.325200
      8 N           -1.5520    -1.2540    -0.4660 nu         1 47H      -0.731600
      9 O            3.2910    -1.3610    -0.2020 os         1 47H      -0.321900
     10 O1           3.4570     0.8980     0.0750 os         1 47H      -0.320900
     11 C1          -1.4830     1.4770    -0.0790 ce         1 47H      -0.022400
     12 H1           1.1030     2.4030     0.1790 ha         1 47H       0.149000
     13 H2           0.7820    -2.5430    -0.4440 ha         1 47H       0.150000
     14 C2          -2.6490     0.8240    -0.0120 c2         1 47H      -0.186200
     15 C3          -2.7430    -0.6700     0.1410 c6         1 47H       0.272400
     16 C11         -3.9630    -1.2070    -0.6020 c3         1 47H      -0.104600
     17 C12         -2.8470    -1.0260     1.6320 c3         1 47H      -0.104600
     18 H3           4.4250    -0.4760     1.2820 h2         1 47H       0.062200
     19 H4           5.0580    -0.3110    -0.3920 h2         1 47H       0.062200
     20 H5          -1.5490    -2.2640    -0.4560 hn         1 47H       0.405800
     21 H7          -3.5810     1.3800    -0.0040 ha         1 47H       0.131000
     22 H8          -4.0270    -2.2930    -0.5110 hc         1 47H       0.042367
     23 H9          -4.8800    -0.7860    -0.1880 hc         1 47H       0.042367
     24 H10         -3.9180    -0.9550    -1.6620 hc         1 47H       0.042367
     25 H11         -1.9600    -0.6930     2.1720 hc         1 47H       0.042367
     26 H12         -3.7190    -0.5500     2.0860 hc         1 47H       0.042367
     27 H13         -2.9470    -2.1060     1.7660 hc         1 47H       0.042367
     28 C13         -1.4250     2.9730    -0.1430 c3         1 47H      -0.051900
     29 H6          -0.8670     3.3190    -1.0160 hc         1 47H       0.043367
     30 H14         -2.4250     3.4000    -0.1900 hc         1 47H       0.043367
     31 H15         -0.9270     3.3890     0.7370 hc         1 47H       0.043367
@<TRIPOS>BOND
     1     1     2 ar  
     2     1     6 ar  
     3     1     8 1   
     4     2     3 ar  
     5     2    11 1   
     6     3     4 ar  
     7     3    12 1   
     8     4     5 ar  
     9     4    10 1   
    10     5     6 ar  
    11     5     9 1   
    12     6    13 1   
    13     7     9 1   
    14     7    10 1   
    15     7    18 1   
    16     7    19 1   
    17     8    15 1   
    18     8    20 1   
    19    11    14 2   
    20    11    28 1   
    21    14    15 1   
    22    14    21 1   
    23    15    16 1   
    24    15    17 1   
    25    16    22 1   
    26    16    23 1   
    27    16    24 1   
    28    17    25 1   
    29    17    26 1   
    30    17    27 1   
    31    28    29 1   
    32    28    30 1   
    33    28    31 1   
@<TRIPOS>SUBSTRUCTURE
     1 47H         1 TEMP              0 ****  ****    0 ROOT
