@<TRIPOS>MOLECULE
47H
   31    33     1     0     0
SMALL
No Charge or Current Charge


@<TRIPOS>ATOM
      1 C4          -0.2750    -0.7020    -0.1150 ca         1 47H       0.325000
      2 C5          -0.1980     0.7110    -0.0120 ca         1 47H      -0.126800
      3 C6           1.0720     1.3370     0.0770 ca         1 47H      -0.039000
      4 C7           2.2120     0.5250     0.0490 ca         1 47H      -0.006900
      5 C8           2.1250    -0.8330    -0.0560 ca         1 47H       0.102100
      6 C9           0.8930    -1.4870    -0.1390 ca         1 47H      -0.177000
      7 C10          4.2680    -0.2920     0.0030 c5         1 47H       0.371600
      8 N           -1.5200    -1.3250    -0.1950 nu         1 47H      -0.925200
      9 O            3.3410    -1.4340    -0.0550 os         1 47H      -0.345100
     10 O1           3.4970     0.9560     0.1300 os         1 47H      -0.344100
     11 C1          -1.4730     1.4890     0.0040 ce         1 47H      -0.022400
     12 H1           1.1790     2.4140     0.1680 ha         1 47H       0.131000
     13 H2           0.8440    -2.5680    -0.2170 ha         1 47H       0.132000
     14 C2          -2.6500     0.8270     0.0780 c2         1 47H      -0.236200
     15 C3          -2.7800    -0.6880     0.1910 c6         1 47H       0.272400
     16 C11         -3.9100    -1.1850    -0.7460 c3         1 47H      -0.104600
     17 C12         -3.1200    -1.0640     1.6560 c3         1 47H      -0.104600
     18 H3           4.9340    -0.4030     0.8660 h2         1 47H       0.062200
     19 H4           4.8540    -0.2590    -0.9230 h2         1 47H       0.062200
     20 H5          -1.5050    -2.3410    -0.2670 hn         1 47H       0.461000
     21 H7          -3.5910     1.3770     0.0770 ha         1 47H       0.181000
     22 H8          -4.0270    -2.2740    -0.6920 hc         1 47H       0.042367
     23 H9          -4.8750    -0.7370    -0.4800 hc         1 47H       0.042367
     24 H10         -3.7020    -0.9240    -1.7900 hc         1 47H       0.042367
     25 H11         -2.3360    -0.7240     2.3440 hc         1 47H       0.042367
     26 H12         -4.0610    -0.6020     1.9760 hc         1 47H       0.042367
     27 H13         -3.2230    -2.1490     1.7790 hc         1 47H       0.042367
     28 C13         -1.4240     3.0040    -0.1120 c3         1 47H      -0.051900
     29 H6          -0.8000     3.3190    -0.9570 hc         1 47H       0.043367
     30 H14         -2.4200     3.4340    -0.2710 hc         1 47H       0.043367
     31 H15         -1.0150     3.4570     0.7980 hc         1 47H       0.043367
@<TRIPOS>BOND
     1     1     2 ar  
     2     1     6 ar  
     3     1     8 1   
     4     2     3 ar  
     5     2    11 1   
     6     3     4 ar  
     7     3    12 1   
     8     4     5 ar  
     9     4    10 1   
    10     5     6 ar  
    11     5     9 1   
    12     6    13 1   
    13     7     9 1   
    14     7    10 1   
    15     7    18 1   
    16     7    19 1   
    17     8    15 1   
    18     8    20 1   
    19    11    14 2   
    20    11    28 1   
    21    14    15 1   
    22    14    21 1   
    23    15    16 1   
    24    15    17 1   
    25    16    22 1   
    26    16    23 1   
    27    16    24 1   
    28    17    25 1   
    29    17    26 1   
    30    17    27 1   
    31    28    29 1   
    32    28    30 1   
    33    28    31 1   
@<TRIPOS>SUBSTRUCTURE
     1 47H         1 TEMP              0 ****  ****    0 ROOT
