@<TRIPOS>MOLECULE
47I
   51    55     1     0     0
SMALL
No Charge or Current Charge


@<TRIPOS>ATOM
      1 O1          88.5730     4.4410    17.8340 oh         1 47I      -0.526100
      2 C18         88.2190     3.8800    16.6440 ca         1 47I       0.155100
      3 C23         88.0160     2.4960    16.5440 ca         1 47I      -0.177000
      4 C22         87.6520     1.9260    15.3110 ca         1 47I      -0.054000
      5 C21         87.4810     2.7290    14.1540 cp         1 47I      -0.095000
      6 C20         87.6920     4.1260    14.2810 ca         1 47I      -0.054000
      7 C19         88.0570     4.6930    15.5150 ca         1 47I      -0.177000
      8 C2          87.0930     2.1200    12.8410 cp         1 47I       0.028000
      9 C3          86.2490     2.8200    11.9260 ca         1 47I      -0.130000
     10 C4          85.8790     2.2600    10.6850 ca         1 47I      -0.048000
     11 C6          86.3540     0.9740    10.3850 ca         1 47I      -0.219900
     12 C7          87.1800     0.3030    11.2290 ca         1 47I      -0.033200
     13 N2          87.5520    -0.8860    10.6280 na         1 47I      -0.048400
     14 N1          86.9640    -0.9970     9.3540 nc         1 47I      -0.510100
     15 C1          87.5700     0.8330    12.4640 ca         1 47I      -0.125000
     16 C5          86.2220     0.1160     9.2240 cd         1 47I       0.386500
     17 C11         85.4040     0.3940     8.0270 ca         1 47I      -0.086900
     18 C10         85.8190    -0.0670     6.7600 ca         1 47I      -0.050000
     19 C9          85.0230     0.1540     5.6230 ca         1 47I      -0.170500
     20 C12         84.1480     1.0240     8.1370 ca         1 47I      -0.050000
     21 C13         83.3550     1.2430     6.9970 ca         1 47I      -0.170500
     22 C8          83.7900     0.8210     5.7270 ca         1 47I       0.290000
     23 N3          82.9930     1.0320     4.5770 nh         1 47I      -0.866400
     24 C15         82.1190     2.2470     4.4180 c6         1 47I       0.215300
     25 C16         82.8560    -0.0340     3.5160 c6         1 47I       0.215300
     26 C17         81.6340     0.1750     2.5660 c6         1 47I       0.074100
     27 N4          80.3980     0.6440     3.4090 ny         1 47I      -0.815000
     28 C14         80.6070     1.8730     4.3660 c6         1 47I       0.074100
     29 H21         88.1360     1.8550    17.4140 ha         1 47I       0.126000
     30 H20         87.4860     0.8520    15.2560 ha         1 47I       0.115000
     31 H19         87.5860     4.7750    13.4150 ha         1 47I       0.115000
     32 H18         88.2180     5.7660    15.5920 ha         1 47I       0.126000
     33 H2          85.8720     3.8060    12.1840 ha         1 47I       0.121000
     34 H3          85.2580     2.8190     9.9900 ha         1 47I       0.113000
     35 H4          88.1750    -1.5970    11.0100 hn         1 47I       0.384000
     36 H1          88.2430     0.2770    13.1100 ha         1 47I       0.128000
     37 H6          86.7700    -0.5870     6.6530 ha         1 47I       0.135000
     38 H5          85.3780    -0.1900     4.6560 ha         1 47I       0.107500
     39 H7          83.7690     1.3260     9.1100 ha         1 47I       0.135000
     40 H8          82.3880     1.7200     7.1140 ha         1 47I       0.107500
     41 H12         82.3810     2.7690     3.4860 h1         1 47I       0.088450
     42 H11         82.2850     2.9780     5.2240 h1         1 47I       0.088450
     43 H14         82.7370    -1.0150     4.0010 h1         1 47I       0.088450
     44 H13         83.7680    -0.0930     2.9020 h1         1 47I       0.088450
     45 H15         81.8400     0.9690     1.8400 hx         1 47I       0.104450
     46 H16         81.3670    -0.7400     2.0260 hx         1 47I       0.104450
     47 H17         79.5830     0.8180     2.7800 hn         1 47I       0.505500
     48 H9          80.0030     2.7070     3.9910 hx         1 47I       0.104450
     49 H10         80.2340     1.5850     5.3550 hx         1 47I       0.104450
     50 H24         88.6400     3.7290    18.5050 ho         1 47I       0.470000
     51 H23         80.0850    -0.1610     3.9920 hn         1 47I       0.505500
@<TRIPOS>BOND
     1     1     2 1   
     2     1    50 1   
     3     2     3 ar  
     4     2     7 ar  
     5     3     4 ar  
     6     3    29 1   
     7     4     5 ar  
     8     4    30 1   
     9     5     6 ar  
    10     5     8 1   
    11     6     7 ar  
    12     6    31 1   
    13     7    32 1   
    14     8     9 ar  
    15     8    15 ar  
    16     9    10 ar  
    17     9    33 1   
    18    10    11 ar  
    19    10    34 1   
    20    11    12 ar  
    21    11    16 1   
    22    12    13 1   
    23    12    15 ar  
    24    13    14 1   
    25    13    35 1   
    26    14    16 2   
    27    15    36 1   
    28    16    17 1   
    29    17    18 ar  
    30    17    20 ar  
    31    18    19 ar  
    32    18    37 1   
    33    19    22 ar  
    34    19    38 1   
    35    20    21 ar  
    36    20    39 1   
    37    21    22 ar  
    38    21    40 1   
    39    22    23 1   
    40    23    24 1   
    41    23    25 1   
    42    24    28 1   
    43    24    41 1   
    44    24    42 1   
    45    25    26 1   
    46    25    43 1   
    47    25    44 1   
    48    26    27 1   
    49    26    45 1   
    50    26    46 1   
    51    27    28 1   
    52    27    47 1   
    53    27    51 1   
    54    28    48 1   
    55    28    49 1   
@<TRIPOS>SUBSTRUCTURE
     1 47I         1 TEMP              0 ****  ****    0 ROOT
