@<TRIPOS>MOLECULE
47I
   51    55     1     0     0
SMALL
abcg2


@<TRIPOS>ATOM
      1 O1          88.5950     4.2500    17.8310 oh         1 47I      -0.526100
      2 C18         88.2370     3.7040    16.6540 ca         1 47I       0.155100
      3 C23         87.9140     2.3570    16.5110 ca         1 47I      -0.177000
      4 C22         87.5510     1.8570    15.2710 ca         1 47I      -0.054000
      5 C21         87.4980     2.6740    14.1420 cp         1 47I      -0.095000
      6 C20         87.8230     4.0230    14.3050 ca         1 47I      -0.054000
      7 C19         88.1910     4.5360    15.5360 ca         1 47I      -0.177000
      8 C2          87.1030     2.1320    12.8260 cp         1 47I       0.028000
      9 C3          86.3000     2.9100    11.9550 ca         1 47I      -0.130000
     10 C4          85.8850     2.4430    10.7310 ca         1 47I      -0.048000
     11 C6          86.2640     1.1530    10.3350 ca         1 47I      -0.219900
     12 C7          87.0830     0.4010    11.1950 ca         1 47I      -0.033200
     13 N2          87.3290    -0.7610    10.5500 na         1 47I      -0.048400
     14 N1          86.7250    -0.8220     9.3640 nc         1 47I      -0.510100
     15 C1          87.5090     0.8690    12.4390 ca         1 47I      -0.125000
     16 C5          86.0730     0.3070     9.1950 cd         1 47I       0.386500
     17 C11         85.3010     0.5470     7.9770 ca         1 47I      -0.086900
     18 C10         85.6150    -0.1100     6.7860 ca         1 47I      -0.050000
     19 C9          84.8790     0.0860     5.6330 ca         1 47I      -0.170500
     20 C12         84.2060     1.4090     7.9570 ca         1 47I      -0.050000
     21 C13         83.4550     1.6100     6.8130 ca         1 47I      -0.170500
     22 C8          83.7720     0.9500     5.6170 ca         1 47I       0.290000
     23 N3          83.0410     1.1270     4.4640 nh         1 47I      -0.866400
     24 C15         82.0950     2.1970     4.2770 c6         1 47I       0.215300
     25 C16         83.0280     0.1230     3.4210 c6         1 47I       0.215300
     26 C17         81.6530     0.0780     2.7590 c6         1 47I       0.074100
     27 N4          80.6080     0.2960     3.7970 ny         1 47I      -0.815000
     28 C14         80.6670     1.6740     4.3960 c6         1 47I       0.074100
     29 H21         87.9340     1.6960    17.3700 ha         1 47I       0.126000
     30 H20         87.2830     0.8110    15.1930 ha         1 47I       0.115000
     31 H19         87.8110     4.6880    13.4500 ha         1 47I       0.115000
     32 H18         88.4480     5.5830    15.6340 ha         1 47I       0.126000
     33 H2          85.9840     3.8960    12.2710 ha         1 47I       0.121000
     34 H3          85.2750     3.0730    10.0970 ha         1 47I       0.113000
     35 H4          87.8700    -1.5460    10.8760 hn         1 47I       0.384000
     36 H1          88.1530     0.2660    13.0680 ha         1 47I       0.128000
     37 H6          86.4670    -0.7760     6.7500 ha         1 47I       0.135000
     38 H5          85.1930    -0.4220     4.7310 ha         1 47I       0.107500
     39 H7          83.8900     1.9130     8.8610 ha         1 47I       0.135000
     40 H8          82.5960     2.2630     6.8780 ha         1 47I       0.107500
     41 H12         82.2500     2.6480     3.2940 h1         1 47I       0.088450
     42 H11         82.2510     2.9970     4.9960 h1         1 47I       0.088450
     43 H14         83.2340    -0.8560     3.8590 h1         1 47I       0.088450
     44 H13         83.7800     0.2980     2.6440 h1         1 47I       0.088450
     45 H15         81.5150     0.8450     1.9990 hx         1 47I       0.104450
     46 H16         81.4790    -0.8920     2.3000 hx         1 47I       0.104450
     47 H17         79.6840     0.1340     3.3960 hn         1 47I       0.505500
     48 H9          79.9660     2.3030     3.8530 hx         1 47I       0.104450
     49 H10         80.3420     1.5870     5.4290 hx         1 47I       0.104450
     50 H24         88.5890     3.5850    18.5290 ho         1 47I       0.470000
     51 H23         80.7070    -0.4080     4.5310 hn         1 47I       0.505500
@<TRIPOS>BOND
     1     1     2 1   
     2     1    50 1   
     3     2     3 ar  
     4     2     7 ar  
     5     3     4 ar  
     6     3    29 1   
     7     4     5 ar  
     8     4    30 1   
     9     5     6 ar  
    10     5     8 1   
    11     6     7 ar  
    12     6    31 1   
    13     7    32 1   
    14     8     9 ar  
    15     8    15 ar  
    16     9    10 ar  
    17     9    33 1   
    18    10    11 ar  
    19    10    34 1   
    20    11    12 ar  
    21    11    16 1   
    22    12    13 1   
    23    12    15 ar  
    24    13    14 1   
    25    13    35 1   
    26    14    16 2   
    27    15    36 1   
    28    16    17 1   
    29    17    18 ar  
    30    17    20 ar  
    31    18    19 ar  
    32    18    37 1   
    33    19    22 ar  
    34    19    38 1   
    35    20    21 ar  
    36    20    39 1   
    37    21    22 ar  
    38    21    40 1   
    39    22    23 1   
    40    23    24 1   
    41    23    25 1   
    42    24    28 1   
    43    24    41 1   
    44    24    42 1   
    45    25    26 1   
    46    25    43 1   
    47    25    44 1   
    48    26    27 1   
    49    26    45 1   
    50    26    46 1   
    51    27    28 1   
    52    27    47 1   
    53    27    51 1   
    54    28    48 1   
    55    28    49 1   
@<TRIPOS>SUBSTRUCTURE
     1 47I         1 TEMP              0 ****  ****    0 ROOT
