@<TRIPOS>MOLECULE
47J
   20    20     1     0     0
SMALL
No Charge or Current Charge


@<TRIPOS>ATOM
      1 C4           2.0680     0.6020    -0.3550 c3         1 47J       0.213100
      2 N1           0.0580    -1.0250    -0.2740 na         1 47J       0.129800
      3 N2          -1.3140    -1.0520    -0.0950 nc         1 47J      -0.526800
      4 C1          -1.6120     0.2180     0.0950 cd         1 47J       0.256300
      5 C           -3.0320     0.6490     0.3310 c3         1 47J      -0.117400
      6 C3           0.6090     0.2550    -0.1900 cc         1 47J      -0.142300
      7 C2          -0.4790     1.0500     0.0420 cd         1 47J      -0.208000
      8 N            2.4350     1.7770     0.4570 n8         1 47J      -0.984200
      9 H1           2.6910    -0.2490    -0.0440 h1         1 47J       0.041200
     10 H2           2.2770     0.8170    -1.4120 h1         1 47J       0.041200
     11 H3           1.3950    -2.1710    -1.4340 h1         1 47J       0.052033
     12 H4           1.4430    -2.4960     0.3250 h1         1 47J       0.052033
     13 H5           0.0830    -3.1070    -0.6620 h1         1 47J       0.052033
     14 H6          -3.0960     1.7340     0.4730 hc         1 47J       0.045367
     15 H7          -3.6690     0.3840    -0.5210 hc         1 47J       0.045367
     16 H8          -3.4450     0.1680     1.2260 hc         1 47J       0.045367
     17 H9          -0.4720     2.1270     0.1640 ha         1 47J       0.144000
     18 H10          2.2820     1.5490     1.4460 hn         1 47J       0.393500
     19 H11          3.4500     1.9200     0.3920 hn         1 47J       0.393500
     20 C5           0.7890    -2.2780    -0.5270 c3         1 47J       0.072900
@<TRIPOS>BOND
     1     1     6 1   
     2     1     8 1   
     3     1     9 1   
     4     1    10 1   
     5     2     3 1   
     6     2     6 1   
     7     2    20 1   
     8     3     4 2   
     9     4     5 1   
    10     4     7 1   
    11     5    14 1   
    12     5    15 1   
    13     5    16 1   
    14     6     7 2   
    15     7    17 1   
    16     8    18 1   
    17     8    19 1   
    18    11    20 1   
    19    12    20 1   
    20    13    20 1   
@<TRIPOS>SUBSTRUCTURE
     1 47J         1 TEMP              0 ****  ****    0 ROOT
