@<TRIPOS>MOLECULE
47J
   20    20     1     0     0
SMALL
abcg2


@<TRIPOS>ATOM
      1 C4           1.9460     0.8020    -0.5140 c3         1 47J       0.213100
      2 N1           0.1220    -0.8560    -0.0590 na         1 47J       0.129800
      3 N2          -1.1960    -0.9490     0.1230 nc         1 47J      -0.526800
      4 C1          -1.6650     0.2820     0.0150 cd         1 47J       0.256300
      5 C           -3.1190     0.5740     0.1670 c3         1 47J      -0.117400
      6 C3           0.5210     0.4110    -0.2970 cc         1 47J      -0.142300
      7 C2          -0.6190     1.1840    -0.2500 cd         1 47J      -0.208000
      8 N            2.6290     1.0370     0.7540 n8         1 47J      -0.984200
      9 H1           2.4410     0.0600    -1.1550 h1         1 47J       0.041200
     10 H2           1.9480     1.7360    -1.0760 h1         1 47J       0.041200
     11 H3           1.0370    -2.4430    -1.0920 h1         1 47J       0.052033
     12 H4           1.9130    -1.8600     0.3310 h1         1 47J       0.052033
     13 H5           0.4420    -2.8080     0.5360 h1         1 47J       0.052033
     14 H6          -3.2980     1.3120     0.9500 hc         1 47J       0.045367
     15 H7          -3.5430     0.9760    -0.7540 hc         1 47J       0.045367
     16 H8          -3.6710    -0.3290     0.4230 hc         1 47J       0.045367
     17 H9          -0.6820     2.2520    -0.3840 ha         1 47J       0.144000
     18 H10          2.7680     0.1580     1.2370 hn         1 47J       0.393500
     19 H11          3.5590     1.3880     0.5600 hn         1 47J       0.393500
     20 C5           0.9250    -2.0550    -0.0800 c3         1 47J       0.072900
@<TRIPOS>BOND
     1     1     6 1   
     2     1     8 1   
     3     1     9 1   
     4     1    10 1   
     5     2     3 1   
     6     2     6 1   
     7     2    20 1   
     8     3     4 2   
     9     4     5 1   
    10     4     7 1   
    11     5    14 1   
    12     5    15 1   
    13     5    16 1   
    14     6     7 2   
    15     7    17 1   
    16     8    18 1   
    17     8    19 1   
    18    11    20 1   
    19    12    20 1   
    20    13    20 1   
@<TRIPOS>SUBSTRUCTURE
     1 47J         1 TEMP              0 ****  ****    0 ROOT
