@<TRIPOS>MOLECULE
47K
   42    43     1     0     0
SMALL
No Charge or Current Charge


@<TRIPOS>ATOM
      1 C4           4.0250     1.4470    -0.6110 c6         1 47K       0.171800
      2 C5           5.1840     0.4780    -0.2750 c6         1 47K      -0.072400
      3 C6           1.6490     1.6340    -1.2940 c3         1 47K       0.095800
      4 N1          -0.6680     0.9410    -0.7530 ns         1 47K      -0.500400
      5 C7           0.3020     0.9880    -1.7340 c          1 47K       0.602100
      6 C8          -1.9350     0.4130    -0.8530 cc         1 47K       0.319900
      7 N2          -3.8270    -0.5900    -1.6490 nc         1 47K      -0.370300
      8 C9          -2.8440     0.3850     0.1480 cd         1 47K      -0.321000
      9 C10         -3.9870    -0.2380    -0.3840 cd         1 47K       0.304300
     10 C11         -5.2840    -0.5090     0.3450 c3         1 47K      -0.102000
     11 C12         -5.9670     0.8040     0.7900 c3         1 47K      -0.084100
     12 O            0.1190     0.5520    -2.8630 o          1 47K      -0.498100
     13 N            2.7460     0.7190    -0.8400 n3         1 47K      -0.702600
     14 C1           4.8390    -0.4030     0.9520 c6         1 47K      -0.062700
     15 O1          -2.4810    -0.1680    -1.9710 os         1 47K      -0.059700
     16 H1           3.9090     2.1670     0.2130 h1         1 47K       0.031700
     17 H2           4.2990     2.0230    -1.5070 h1         1 47K       0.031700
     18 H3           5.3910    -0.1570    -1.1480 hc         1 47K       0.051200
     19 H5           1.9960     2.2180    -2.1570 h1         1 47K       0.047200
     20 H6           1.4210     2.3610    -0.5030 h1         1 47K       0.047200
     21 H7          -0.3960     1.3340     0.1380 hn         1 47K       0.330500
     22 H8          -2.7170     0.7640     1.1540 ha         1 47K       0.150000
     23 H9          -5.9750    -1.0070    -0.3490 hc         1 47K       0.071700
     24 H11         -6.1410     1.4590    -0.0720 hc         1 47K       0.038200
     25 H12         -6.9350     0.5980     1.2620 hc         1 47K       0.038200
     26 H13         -5.3430     1.3460     1.5110 hc         1 47K       0.038200
     27 H17          4.7360     0.2480     1.8330 hc         1 47K       0.039700
     28 C2          -5.0730    -1.4720     1.5350 c3         1 47K      -0.084100
     29 C3           2.3730    -0.1100     0.3430 c6         1 47K       0.171800
     30 C13          3.4880    -1.1210     0.7070 c6         1 47K      -0.072400
     31 H10         -4.4110    -1.0270     2.2880 hc         1 47K       0.038200
     32 H14         -6.0300    -1.7100     2.0160 hc         1 47K       0.038200
     33 H15         -4.6220    -2.4120     1.1940 hc         1 47K       0.038200
     34 H19          2.1760     0.5360     1.2120 h1         1 47K       0.031700
     35 H20          1.4510    -0.6740     0.1420 h1         1 47K       0.031700
     36 H4           6.0990     1.0540    -0.0820 hc         1 47K       0.051200
     37 H21          3.5930    -1.8520    -0.1050 hc         1 47K       0.051200
     38 C15          5.9750    -1.4080     1.2800 c3         1 47K      -0.085100
     39 H16          3.1920    -1.6850     1.6020 hc         1 47K       0.051200
     40 H18          6.9190    -0.8860     1.4810 hc         1 47K       0.034367
     41 H22          5.7320    -2.0040     2.1670 hc         1 47K       0.034367
     42 H23          6.1480    -2.1010     0.4480 hc         1 47K       0.034367
@<TRIPOS>BOND
     1     1     2 1   
     2     1    13 1   
     3     1    16 1   
     4     1    17 1   
     5     2    14 1   
     6     2    18 1   
     7     2    36 1   
     8     3     5 1   
     9     3    13 1   
    10     3    19 1   
    11     3    20 1   
    12     4     5 1   
    13     4     6 1   
    14     4    21 1   
    15     5    12 2   
    16     6     8 2   
    17     6    15 1   
    18     7     9 2   
    19     7    15 1   
    20     8     9 1   
    21     8    22 1   
    22     9    10 1   
    23    10    11 1   
    24    10    23 1   
    25    10    28 1   
    26    11    24 1   
    27    11    25 1   
    28    11    26 1   
    29    13    29 1   
    30    14    27 1   
    31    14    30 1   
    32    14    38 1   
    33    28    31 1   
    34    28    32 1   
    35    28    33 1   
    36    29    30 1   
    37    29    34 1   
    38    29    35 1   
    39    30    37 1   
    40    30    39 1   
    41    38    40 1   
    42    38    41 1   
    43    38    42 1   
@<TRIPOS>SUBSTRUCTURE
     1 47K         1 TEMP              0 ****  ****    0 ROOT
