@<TRIPOS>MOLECULE
47K
   42    43     1     0     0
SMALL
bcc


@<TRIPOS>ATOM
      1 C4           3.7940     1.4330     0.0610 c6         1 47K       0.171800
      2 C5           5.1020     0.9030    -0.5020 c6         1 47K      -0.072400
      3 C6           1.4840     0.9330     0.4200 c3         1 47K       0.095800
      4 N1          -0.8720     0.4830     0.4560 ns         1 47K      -0.567400
      5 C7           0.3190     0.1290    -0.1310 c          1 47K       0.669100
      6 C8          -2.1280     0.0500     0.1250 cc         1 47K       0.429600
      7 N2          -3.6230    -1.3030    -0.7620 nc         1 47K      -0.370300
      8 C9          -3.3410     0.5690     0.4490 cd         1 47K      -0.469600
      9 C10         -4.2480    -0.3420    -0.1440 cd         1 47K       0.369600
     10 C11         -5.7420    -0.2840    -0.1250 c3         1 47K      -0.102000
     11 C12         -6.2370     0.9660    -0.8520 c3         1 47K      -0.084100
     12 O            0.4070    -0.7030    -1.0020 o          1 47K      -0.498100
     13 N            2.7570     0.4150     0.0140 n3         1 47K      -0.702600
     14 C1           5.5630    -0.3470     0.2410 c6         1 47K      -0.062700
     15 O1          -2.2760    -1.0580    -0.5890 os         1 47K      -0.104100
     16 H1           3.9620     1.7960     1.0910 h1         1 47K       0.031700
     17 H2           3.4620     2.2950    -0.5240 h1         1 47K       0.031700
     18 H3           4.9680     0.6690    -1.5640 hc         1 47K       0.051200
     19 H5           1.3630     1.9500     0.0290 h1         1 47K       0.047200
     20 H6           1.3750     1.0220     1.5140 h1         1 47K       0.047200
     21 H7          -0.8520     1.2210     1.1450 hn         1 47K       0.330500
     22 H8          -3.5500     1.4640     1.0110 ha         1 47K       0.168000
     23 H9          -6.1100    -1.1650    -0.6590 hc         1 47K       0.071700
     24 H11         -5.9100     0.9800    -1.8910 hc         1 47K       0.038200
     25 H12         -7.3270     1.0000    -0.8430 hc         1 47K       0.038200
     26 H13         -5.8720     1.8740    -0.3700 hc         1 47K       0.038200
     27 H17          5.7580    -0.0600     1.2830 hc         1 47K       0.039700
     28 C2          -6.2620    -0.3360     1.3110 c3         1 47K      -0.084100
     29 C3           3.1370    -0.7650     0.7740 c6         1 47K       0.171800
     30 C13          4.4290    -1.3670     0.2450 c6         1 47K      -0.072400
     31 H10         -5.9370     0.5350     1.8820 hc         1 47K       0.038200
     32 H14         -7.3520    -0.3490     1.3190 hc         1 47K       0.038200
     33 H15         -5.9120    -1.2290     1.8300 hc         1 47K       0.038200
     34 H19          3.2610    -0.5200     1.8450 h1         1 47K       0.031700
     35 H20          2.3380    -1.5050     0.7130 h1         1 47K       0.031700
     36 H4           5.8630     1.6860    -0.4420 hc         1 47K       0.051200
     37 H21          4.2640    -1.7360    -0.7730 hc         1 47K       0.051200
     38 C15          6.8440    -0.9210    -0.3430 c3         1 47K      -0.085100
     39 H16          4.6980    -2.2330     0.8560 hc         1 47K       0.051200
     40 H18          7.6540    -0.1900    -0.3200 hc         1 47K       0.034367
     41 H22          7.1750    -1.7990     0.2160 hc         1 47K       0.034367
     42 H23          6.7010    -1.2260    -1.3830 hc         1 47K       0.034367
@<TRIPOS>BOND
     1     1     2 1   
     2     1    13 1   
     3     1    16 1   
     4     1    17 1   
     5     2    14 1   
     6     2    18 1   
     7     2    36 1   
     8     3     5 1   
     9     3    13 1   
    10     3    19 1   
    11     3    20 1   
    12     4     5 1   
    13     4     6 1   
    14     4    21 1   
    15     5    12 2   
    16     6     8 2   
    17     6    15 1   
    18     7     9 2   
    19     7    15 1   
    20     8     9 1   
    21     8    22 1   
    22     9    10 1   
    23    10    11 1   
    24    10    23 1   
    25    10    28 1   
    26    11    24 1   
    27    11    25 1   
    28    11    26 1   
    29    13    29 1   
    30    14    27 1   
    31    14    30 1   
    32    14    38 1   
    33    28    31 1   
    34    28    32 1   
    35    28    33 1   
    36    29    30 1   
    37    29    34 1   
    38    29    35 1   
    39    30    37 1   
    40    30    39 1   
    41    38    40 1   
    42    38    41 1   
    43    38    42 1   
@<TRIPOS>SUBSTRUCTURE
     1 47K         1 TEMP              0 ****  ****    0 ROOT
