@<TRIPOS>MOLECULE
47L
   36    37     1     0     0
SMALL
No Charge or Current Charge


@<TRIPOS>ATOM
      1 C4           5.1270    -0.1670    -0.6620 c5         1 47L      -0.113400
      2 C5           4.0360    -1.2580    -0.6570 c5         1 47L       0.150600
      3 C6          -1.9310    -0.1590     0.2010 c6         1 47L      -0.139700
      4 C7          -2.6240    -1.1170     1.2080 c6         1 47L      -0.066400
      5 C8          -3.8460    -1.8180     0.5620 c6         1 47L      -0.074400
      6 C9          -4.8310    -0.7890    -0.0490 c6         1 47L      -0.075400
      7 C10         -4.1250     0.1190    -1.0880 c6         1 47L      -0.074400
      8 C11         -2.9070     0.8480    -0.4660 c6         1 47L      -0.066400
      9 O           -0.7030     1.2960     1.7040 o          1 47L      -0.610100
     10 C           -0.6610     0.5080     0.7690 c          1 47L       0.598100
     11 N            0.5240     0.1600     0.1610 ns         1 47L      -0.501900
     12 C1           1.8460     0.6800     0.5300 c3         1 47L       0.083000
     13 C2           2.8410     0.7340    -0.6600 c5         1 47L       0.140300
     14 O1           2.9390    -0.5710    -1.2790 os         1 47L      -0.465000
     15 C3           4.3070     1.0890    -0.2420 c5         1 47L      -0.104400
     16 H1           5.9490    -0.3890     0.0260 hc         1 47L       0.056700
     17 H2           5.5550    -0.0500    -1.6650 hc         1 47L       0.056700
     18 H3           4.3100    -2.1470    -1.2400 h1         1 47L       0.047700
     19 H4           3.7540    -1.5630     0.3600 h1         1 47L       0.047700
     20 H5          -1.5750    -0.8030    -0.6160 hc         1 47L       0.053700
     21 H6          -1.9090    -1.8710     1.5650 hc         1 47L       0.050450
     22 H7          -2.9500    -0.5520     2.0920 hc         1 47L       0.050450
     23 H8          -3.5040    -2.5110    -0.2200 hc         1 47L       0.038700
     24 H9          -4.3640    -2.4290     1.3140 hc         1 47L       0.038700
     25 H10         -5.6690    -1.3160    -0.5250 hc         1 47L       0.040700
     26 H11         -5.2640    -0.1710     0.7500 hc         1 47L       0.040700
     27 H12         -3.7960    -0.4870    -1.9440 hc         1 47L       0.038700
     28 H13         -4.8370     0.8560    -1.4830 hc         1 47L       0.038700
     29 H14         -3.2560     1.5740     0.2810 hc         1 47L       0.050450
     30 H15         -2.3840     1.4250    -1.2410 hc         1 47L       0.050450
     31 H16          0.4720    -0.5020    -0.6050 hn         1 47L       0.322500
     32 H17          1.7370     1.6940     0.9350 h1         1 47L       0.054200
     33 H18          2.2580     0.0440     1.3240 h1         1 47L       0.054200
     34 H19          2.4530     1.4440    -1.4040 h1         1 47L       0.073700
     35 H20          4.3840     1.2710     0.8370 hc         1 47L       0.056200
     36 H21          4.6660     1.9960    -0.7410 hc         1 47L       0.056200
@<TRIPOS>BOND
     1     1     2 1   
     2     1    15 1   
     3     1    16 1   
     4     1    17 1   
     5     2    14 1   
     6     2    18 1   
     7     2    19 1   
     8     3     4 1   
     9     3     8 1   
    10     3    10 1   
    11     3    20 1   
    12     4     5 1   
    13     4    21 1   
    14     4    22 1   
    15     5     6 1   
    16     5    23 1   
    17     5    24 1   
    18     6     7 1   
    19     6    25 1   
    20     6    26 1   
    21     7     8 1   
    22     7    27 1   
    23     7    28 1   
    24     8    29 1   
    25     8    30 1   
    26     9    10 2   
    27    10    11 1   
    28    11    12 1   
    29    11    31 1   
    30    12    13 1   
    31    12    32 1   
    32    12    33 1   
    33    13    14 1   
    34    13    15 1   
    35    13    34 1   
    36    15    35 1   
    37    15    36 1   
@<TRIPOS>SUBSTRUCTURE
     1 47L         1 TEMP              0 ****  ****    0 ROOT
