@<TRIPOS>MOLECULE
47L
   36    37     1     0     0
SMALL
bcc


@<TRIPOS>ATOM
      1 C4           5.0720    -0.3100    -0.3610 c5         1 47L      -0.113400
      2 C5           4.0240    -1.4090    -0.3130 c5         1 47L       0.127400
      3 C6          -1.9440     0.0730    -0.1760 c6         1 47L      -0.139700
      4 C7          -2.2420    -1.1110     0.7570 c6         1 47L      -0.066400
      5 C8          -3.4870    -1.8690     0.3090 c6         1 47L      -0.074400
      6 C9          -4.6920    -0.9410     0.1970 c6         1 47L      -0.075400
      7 C10         -4.3970     0.2330    -0.7320 c6         1 47L      -0.074400
      8 C11         -3.1540     0.9970    -0.2860 c6         1 47L      -0.066400
      9 O           -0.7830     1.7320     1.1300 o          1 47L      -0.610100
     10 C           -0.7160     0.8060     0.3320 c          1 47L       0.665100
     11 N            0.4550     0.3360    -0.1330 ns         1 47L      -0.568900
     12 C1           1.7430     0.7890     0.3390 c3         1 47L       0.083000
     13 C2           2.8290     0.5250    -0.6900 c5         1 47L       0.117100
     14 O1           2.9080    -0.8630    -0.9940 os         1 47L      -0.418600
     15 C3           4.2160     0.9420    -0.1660 c5         1 47L      -0.104400
     16 H1           5.8390    -0.4260     0.4040 hc         1 47L       0.056700
     17 H2           5.5660    -0.2980    -1.3350 hc         1 47L       0.056700
     18 H3           4.3220    -2.3300    -0.8170 h1         1 47L       0.047700
     19 H4           3.7730    -1.6590     0.7260 h1         1 47L       0.047700
     20 H5          -1.7240    -0.3340    -1.1710 hc         1 47L       0.053700
     21 H6          -1.3840    -1.7880     0.7900 hc         1 47L       0.050450
     22 H7          -2.3870    -0.7380     1.7760 hc         1 47L       0.050450
     23 H8          -3.2960    -2.3370    -0.6630 hc         1 47L       0.038700
     24 H9          -3.6960    -2.6800     1.0100 hc         1 47L       0.038700
     25 H10         -5.5650    -1.4930    -0.1570 hc         1 47L       0.040700
     26 H11         -4.9460    -0.5580     1.1920 hc         1 47L       0.040700
     27 H12         -4.2540    -0.1380    -1.7530 hc         1 47L       0.038700
     28 H13         -5.2530     0.9110    -0.7680 hc         1 47L       0.038700
     29 H14         -3.3450     1.4610     0.6860 hc         1 47L       0.050450
     30 H15         -2.9430     1.8090    -0.9870 hc         1 47L       0.050450
     31 H16          0.4410    -0.4910    -0.7100 hn         1 47L       0.322500
     32 H17          1.6960     1.8610     0.5340 h1         1 47L       0.054200
     33 H18          2.0080     0.3040     1.2870 h1         1 47L       0.054200
     34 H19          2.5730     1.0450    -1.6190 h1         1 47L       0.073700
     35 H20          4.1620     1.2070     0.8930 hc         1 47L       0.056200
     36 H21          4.6060     1.8080    -0.6980 hc         1 47L       0.056200
@<TRIPOS>BOND
     1     1     2 1   
     2     1    15 1   
     3     1    16 1   
     4     1    17 1   
     5     2    14 1   
     6     2    18 1   
     7     2    19 1   
     8     3     4 1   
     9     3     8 1   
    10     3    10 1   
    11     3    20 1   
    12     4     5 1   
    13     4    21 1   
    14     4    22 1   
    15     5     6 1   
    16     5    23 1   
    17     5    24 1   
    18     6     7 1   
    19     6    25 1   
    20     6    26 1   
    21     7     8 1   
    22     7    27 1   
    23     7    28 1   
    24     8    29 1   
    25     8    30 1   
    26     9    10 2   
    27    10    11 1   
    28    11    12 1   
    29    11    31 1   
    30    12    13 1   
    31    12    32 1   
    32    12    33 1   
    33    13    14 1   
    34    13    15 1   
    35    13    34 1   
    36    15    35 1   
    37    15    36 1   
@<TRIPOS>SUBSTRUCTURE
     1 47L         1 TEMP              0 ****  ****    0 ROOT
