@<TRIPOS>MOLECULE
47M
   17    17     1     0     0
SMALL
No Charge or Current Charge


@<TRIPOS>ATOM
      1 C4           0.4410    -0.3370    -0.0170 cc         1 47M      -0.004700
      2 C5           1.8570     0.1910    -0.0430 c3         1 47M       0.299700
      3 F2           2.2010     0.6240    -1.2770 f          1 47M      -0.103667
      4 F            2.0150     1.2300     0.8070 f          1 47M      -0.103667
      5 F1           2.7550    -0.7560     0.3130 f          1 47M      -0.103667
      6 C3          -0.0540    -1.5750     0.3010 cd         1 47M      -0.104000
      7 C2          -1.4550    -1.5100     0.1540 cd         1 47M      -0.198000
      8 O           -0.6010     0.5010    -0.3580 os         1 47M      -0.185000
      9 C1          -1.7600    -0.2360    -0.2450 cc         1 47M       0.164300
     10 C           -3.0890     0.4130    -0.5650 c3         1 47M       0.117500
     11 N           -3.9010     0.7260     0.6420 n8         1 47M      -0.984200
     12 H1           0.5270    -2.4410     0.6060 ha         1 47M       0.155000
     13 H2          -2.1640    -2.3130     0.3230 ha         1 47M       0.146000
     14 H3          -2.9100     1.3440    -1.1220 h1         1 47M       0.050700
     15 H4          -3.6640    -0.2620    -1.2150 h1         1 47M       0.050700
     16 H5          -4.8160     1.0940     0.3500 hn         1 47M       0.401000
     17 H6          -4.1370    -0.1490     1.1280 hn         1 47M       0.401000
@<TRIPOS>BOND
     1     1     2 1   
     2     1     6 2   
     3     1     8 1   
     4     2     3 1   
     5     2     4 1   
     6     2     5 1   
     7     6     7 1   
     8     6    12 1   
     9     7     9 2   
    10     7    13 1   
    11     8     9 1   
    12     9    10 1   
    13    10    11 1   
    14    10    14 1   
    15    10    15 1   
    16    11    16 1   
    17    11    17 1   
@<TRIPOS>SUBSTRUCTURE
     1 47M         1 TEMP              0 ****  ****    0 ROOT
