@<TRIPOS>MOLECULE
47M
   17    17     1     0     0
SMALL
abcg2


@<TRIPOS>ATOM
      1 C4           0.3410    -0.3830     0.0170 cc         1 47M      -0.004700
      2 C5           1.6430     0.3050     0.1460 c3         1 47M       0.299700
      3 F2           1.9740     0.9780    -0.9660 f          1 47M      -0.103667
      4 F            1.6500     1.2010     1.1420 f          1 47M      -0.103667
      5 F1           2.6100    -0.5810     0.3870 f          1 47M      -0.103667
      6 C3           0.0010    -1.6900     0.0700 cd         1 47M      -0.104000
      7 C2          -1.4100    -1.7200    -0.1280 cd         1 47M      -0.198000
      8 O           -0.7410     0.3890    -0.1980 os         1 47M      -0.185000
      9 C1          -1.8080    -0.4330    -0.2860 cc         1 47M       0.164300
     10 C           -3.1420     0.1770    -0.5260 c3         1 47M       0.117500
     11 N           -3.4820     1.1310     0.5180 n8         1 47M      -0.984200
     12 H1           0.6580    -2.5300     0.2300 ha         1 47M       0.155000
     13 H2          -2.0470    -2.5890    -0.1480 ha         1 47M       0.146000
     14 H3          -3.1290     0.7080    -1.4820 h1         1 47M       0.050700
     15 H4          -3.8540    -0.6490    -0.6430 h1         1 47M       0.050700
     16 H5          -4.3450     1.5960     0.2690 hn         1 47M       0.401000
     17 H6          -3.6730     0.6340     1.3790 hn         1 47M       0.401000
@<TRIPOS>BOND
     1     1     2 1   
     2     1     6 2   
     3     1     8 1   
     4     2     3 1   
     5     2     4 1   
     6     2     5 1   
     7     6     7 1   
     8     6    12 1   
     9     7     9 2   
    10     7    13 1   
    11     8     9 1   
    12     9    10 1   
    13    10    11 1   
    14    10    14 1   
    15    10    15 1   
    16    11    16 1   
    17    11    17 1   
@<TRIPOS>SUBSTRUCTURE
     1 47M         1 TEMP              0 ****  ****    0 ROOT
