@<TRIPOS>MOLECULE
47N
   42    44     1     0     0
SMALL
bcc


@<TRIPOS>ATOM
      1 OAG         -2.4000     0.8050     2.1240 oh         1 47N      -0.593800
      2 CAB         -2.5010    -0.2680     1.2250 c6         1 47N       0.114100
      3 CAC         -3.8290    -0.1310     0.4790 c5         1 47N       0.143100
      4 CAD         -3.8140     1.1450    -0.3460 c5         1 47N       0.085100
      5 OAI         -5.1000     1.3680    -0.8600 oh         1 47N      -0.578800
      6 OAH         -3.9280    -1.1760    -0.4820 os         1 47N      -0.400600
      7 CAF         -3.3860    -0.7120    -1.7190 c5         1 47N       0.092400
      8 CAE         -2.8230     0.6710    -1.4140 c5         1 47N       0.088100
      9 OAJ         -1.5270     0.6450    -0.8430 os         1 47N      -0.442600
     10 CAA         -1.3570    -0.2960     0.1990 c6         1 47N       0.305900
     11 O3          -0.1890     0.0110     0.8630 os         1 47N      -0.387600
     12 C3           1.0180    -0.3090     0.2030 c6         1 47N       0.167100
     13 C4           1.8240     0.9550    -0.0790 c6         1 47N       0.107100
     14 O4           1.9940     1.6560     1.1290 oh         1 47N      -0.570800
     15 C5           3.1640     0.5450    -0.6970 c6         1 47N       0.126100
     16 C6           4.0560     1.7380    -0.9610 c3         1 47N       0.145400
     17 O6           5.1780     1.3150    -1.6990 oh         1 47N      -0.586800
     18 O5           3.8490    -0.3450     0.1590 os         1 47N      -0.410600
     19 C1           3.1570    -1.5510     0.3600 c6         1 47N       0.317900
     20 O1           3.9150    -2.3620     1.1820 oh         1 47N      -0.580800
     21 C2           1.8150    -1.2910     1.0480 c6         1 47N       0.109100
     22 O2           1.0600    -2.4700     1.1560 oh         1 47N      -0.599800
     23 HAG         -1.5130     0.8020     2.5000 ho         1 47N       0.433000
     24 HAB         -2.4830    -1.2310     1.7560 h1         1 47N       0.064700
     25 HAC         -4.6750    -0.1980     1.1680 h1         1 47N       0.110700
     26 HAA         -1.2970    -1.3080    -0.2290 h2         1 47N       0.053700
     27 HAD         -3.4360     2.0100     0.2070 h1         1 47N       0.086700
     28 HAI         -5.0670     2.1390    -1.4350 ho         1 47N       0.406000
     29 HAE         -2.7720     1.3110    -2.2960 h1         1 47N       0.090700
     30 HAF1        -2.6280    -1.4080    -2.0890 h1         1 47N       0.060200
     31 HAF2        -4.1750    -0.6440    -2.4730 h1         1 47N       0.060200
     32 H3           0.8070    -0.7860    -0.7640 h1         1 47N       0.056700
     33 H4           1.2760     1.5560    -0.8160 h1         1 47N       0.055700
     34 H2           2.0140    -0.8470     2.0340 h1         1 47N       0.085700
     35 HA           2.0340     2.5980     0.9410 ho         1 47N       0.404000
     36 H5           2.9480     0.0560    -1.6620 h1         1 47N       0.048700
     37 H61C         3.4670     2.4850    -1.5090 h1         1 47N       0.029700
     38 H62C         4.3500     2.1940    -0.0070 h1         1 47N       0.029700
     39 H6           5.7580     2.0720    -1.8150 ho         1 47N       0.407000
     40 H1           2.9670    -2.0320    -0.6170 h2         1 47N       0.021700
     41 HB           4.5860    -2.8130     0.6590 ho         1 47N       0.424000
     42 HC           1.5210    -3.0730     1.7470 ho         1 47N       0.423000
@<TRIPOS>BOND
     1     1     2 1   
     2     1    23 1   
     3     2     3 1   
     4     2    10 1   
     5     2    24 1   
     6     3     4 1   
     7     3     6 1   
     8     3    25 1   
     9     4     5 1   
    10     4     8 1   
    11     4    27 1   
    12     5    28 1   
    13     6     7 1   
    14     7     8 1   
    15     7    30 1   
    16     7    31 1   
    17     8     9 1   
    18     8    29 1   
    19     9    10 1   
    20    10    11 1   
    21    10    26 1   
    22    11    12 1   
    23    12    13 1   
    24    12    21 1   
    25    12    32 1   
    26    13    14 1   
    27    13    15 1   
    28    13    33 1   
    29    14    35 1   
    30    15    16 1   
    31    15    18 1   
    32    15    36 1   
    33    16    17 1   
    34    16    37 1   
    35    16    38 1   
    36    17    39 1   
    37    18    19 1   
    38    19    20 1   
    39    19    21 1   
    40    19    40 1   
    41    20    41 1   
    42    21    22 1   
    43    21    34 1   
    44    22    42 1   
@<TRIPOS>SUBSTRUCTURE
     1 47N         1 TEMP              0 ****  ****    0 ROOT
