@<TRIPOS>MOLECULE
47N
   42    44     1     0     0
SMALL
No Charge or Current Charge


@<TRIPOS>ATOM
      1 OAG         -2.3690     1.5060     1.9200 oh         1 47N      -0.716000
      2 CAB         -2.5100     0.1800     1.3530 c6         1 47N       0.137300
      3 CAC         -3.9110     0.0250     0.6830 c5         1 47N       0.166300
      4 CAD         -4.0770     1.0130    -0.5120 c5         1 47N       0.108300
      5 OAI         -5.4310     1.0910    -1.0070 oh         1 47N      -0.701000
      6 OAH         -4.0370    -1.2890     0.0620 os         1 47N      -0.447000
      7 CAF         -3.5230    -1.2060    -1.2980 c5         1 47N       0.115600
      8 CAE         -3.1000     0.2910    -1.4880 c5         1 47N       0.111300
      9 OAJ         -1.7250     0.4600    -1.0050 os         1 47N      -0.489000
     10 CAA         -1.3890    -0.0970     0.2940 c6         1 47N       0.352300
     11 O3          -0.1440     0.4970     0.7250 os         1 47N      -0.434000
     12 C3           1.0470     0.0240     0.0360 c6         1 47N       0.190300
     13 C4           2.1290     1.1500     0.0330 c6         1 47N       0.130300
     14 O4           2.3810     1.6130     1.3800 oh         1 47N      -0.693000
     15 C5           3.4230     0.6140    -0.6630 c6         1 47N       0.149300
     16 C6           4.5790     1.6680    -0.6910 c3         1 47N       0.168600
     17 O6           5.7580     1.1990    -1.3770 oh         1 47N      -0.709000
     18 O5           3.8980    -0.5870    -0.0010 os         1 47N      -0.457000
     19 C1           2.9640    -1.6670    -0.0630 c6         1 47N       0.364300
     20 O1           3.6030    -2.7560     0.5790 oh         1 47N      -0.643000
     21 C2           1.6330    -1.2910     0.6700 c6         1 47N       0.132300
     22 O2           0.7000    -2.4020     0.6520 oh         1 47N      -0.722000
     23 HAG         -1.4300     1.7550     1.7370 ho         1 47N       0.532000
     24 HAB         -2.4180    -0.5760     2.1470 h1         1 47N       0.064700
     25 HAC         -4.6910     0.1550     1.4450 h1         1 47N       0.110700
     26 HAA         -1.2850    -1.1850     0.1980 h2         1 47N       0.053700
     27 HAD         -3.7100     2.0180    -0.2560 h1         1 47N       0.086700
     28 HAI         -5.4570     1.8040    -1.6870 ho         1 47N       0.505000
     29 HAE         -3.1760     0.6390    -2.5270 h1         1 47N       0.090700
     30 HAF1        -2.6920    -1.9090    -1.4380 h1         1 47N       0.060200
     31 HAF2        -4.3290    -1.4820    -1.9920 h1         1 47N       0.060200
     32 H3           0.7890    -0.1820    -1.0140 h1         1 47N       0.056700
     33 H4           1.7410     1.9830    -0.5730 h1         1 47N       0.055700
     34 H2           1.8980    -1.0580     1.7120 h1         1 47N       0.085700
     35 HA           1.4980     1.7090     1.8050 ho         1 47N       0.503000
     36 H5           3.1830     0.3640    -1.7070 h1         1 47N       0.048700
     37 H61C         4.2000     2.5770    -1.1780 h1         1 47N       0.029700
     38 H62C         4.8320     1.9350     0.3440 h1         1 47N       0.029700
     39 H6           6.4500     1.8910    -1.2630 ho         1 47N       0.506000
     40 H1           2.7630    -1.9200    -1.1150 h2         1 47N       0.021700
     41 HB           4.5550    -2.5260     0.5260 ho         1 47N       0.463000
     42 HC           1.2350    -3.2020     0.8780 ho         1 47N       0.522000
@<TRIPOS>BOND
     1     1     2 1   
     2     1    23 1   
     3     2     3 1   
     4     2    10 1   
     5     2    24 1   
     6     3     4 1   
     7     3     6 1   
     8     3    25 1   
     9     4     5 1   
    10     4     8 1   
    11     4    27 1   
    12     5    28 1   
    13     6     7 1   
    14     7     8 1   
    15     7    30 1   
    16     7    31 1   
    17     8     9 1   
    18     8    29 1   
    19     9    10 1   
    20    10    11 1   
    21    10    26 1   
    22    11    12 1   
    23    12    13 1   
    24    12    21 1   
    25    12    32 1   
    26    13    14 1   
    27    13    15 1   
    28    13    33 1   
    29    14    35 1   
    30    15    16 1   
    31    15    18 1   
    32    15    36 1   
    33    16    17 1   
    34    16    37 1   
    35    16    38 1   
    36    17    39 1   
    37    18    19 1   
    38    19    20 1   
    39    19    21 1   
    40    19    40 1   
    41    20    41 1   
    42    21    22 1   
    43    21    34 1   
    44    22    42 1   
@<TRIPOS>SUBSTRUCTURE
     1 47N         1 TEMP              0 ****  ****    0 ROOT
