@<TRIPOS>MOLECULE
47P
   38    40     1     0     0
SMALL
abcg2


@<TRIPOS>ATOM
      1 C4          -3.6330     2.3840     9.2990 cx         1 47P      -0.123900
      2 C6          -6.1340    -0.5690     9.8090 c3         1 47P       0.131500
      3 N1          -8.2970    -0.6250     8.6680 nc         1 47P      -0.644100
      4 C7          -7.3640     0.0810     9.2160 cd         1 47P       0.494900
      5 C8          -9.3520     0.0610     8.0910 ca         1 47P       0.190400
      6 N2          -7.3750     1.4410     9.2650 ns         1 47P      -0.416400
      7 C9         -10.3830    -0.6710     7.4780 ca         1 47P      -0.110000
      8 C10        -11.4510    -0.0190     6.8950 ca         1 47P      -0.075000
      9 C11        -11.5270     1.3810     6.9040 ca         1 47P      -0.138000
     10 C12        -10.5250     2.1180     7.5010 ca         1 47P      -0.039000
     11 C13         -9.4350     1.4710     8.0970 ca         1 47P      -0.205600
     12 C14         -8.3700     2.2380     8.7370 c          1 47P       0.575600
     13 O           -8.3160     3.4620     8.8270 o          1 47P      -0.547000
     14 N           -5.5030     0.2840    10.7990 n3         1 47P      -0.771600
     15 C1          -4.0280     0.2900    10.7930 c3         1 47P       0.226500
     16 C           -3.3930    -1.0810    11.0530 c3         1 47P      -0.119100
     17 C2          -3.4950     0.9070     9.5190 cx         1 47P      -0.135700
     18 C3          -2.2780     1.7870     9.5840 cx         1 47P      -0.123900
     19 H1          -3.8370     2.7390     8.2980 hc         1 47P       0.074450
     20 H2          -4.1060     2.9580    10.0870 hc         1 47P       0.074450
     21 H3          -5.6500     0.8420    12.8080 h1         1 47P       0.037700
     22 H4          -7.1680     0.3270    12.0640 h1         1 47P       0.037700
     23 H5          -5.9660    -0.8860    12.5320 h1         1 47P       0.037700
     24 H6          -6.4230    -1.5530    10.1960 h1         1 47P       0.069700
     25 H7          -5.4470    -0.7460     8.9800 h1         1 47P       0.069700
     26 H8          -6.5950     1.8620     9.7670 hn         1 47P       0.356500
     27 H9         -10.3180    -1.7520     7.4740 ha         1 47P       0.131000
     28 H10        -12.2390    -0.5960     6.4260 ha         1 47P       0.116000
     29 H11        -12.3700     1.8800     6.4430 ha         1 47P       0.118000
     30 H12        -10.5640     3.1990     7.5210 ha         1 47P       0.134000
     31 H14         -3.7510     0.9560    11.6150 h1         1 47P       0.059700
     32 H15         -3.7540    -1.5170    11.9860 hc         1 47P       0.041700
     33 H16         -3.6160    -1.7750    10.2390 hc         1 47P       0.041700
     34 H17         -2.3080    -0.9820    11.1220 hc         1 47P       0.041700
     35 H18         -3.5690     0.2820     8.6360 hc         1 47P       0.077700
     36 H19         -1.8450     1.9680    10.5610 hc         1 47P       0.074450
     37 H20         -1.5600     1.7320     8.7760 hc         1 47P       0.074450
     38 C5          -6.0960     0.1250    12.1190 c3         1 47P       0.163100
@<TRIPOS>BOND
     1     1    17 1   
     2     1    18 1   
     3     1    19 1   
     4     1    20 1   
     5     2     4 1   
     6     2    14 1   
     7     2    24 1   
     8     2    25 1   
     9     3     4 2   
    10     3     5 1   
    11     4     6 1   
    12     5     7 ar  
    13     5    11 ar  
    14     6    12 1   
    15     6    26 1   
    16     7     8 ar  
    17     7    27 1   
    18     8     9 ar  
    19     8    28 1   
    20     9    10 ar  
    21     9    29 1   
    22    10    11 ar  
    23    10    30 1   
    24    11    12 1   
    25    12    13 2   
    26    14    15 1   
    27    14    38 1   
    28    15    16 1   
    29    15    17 1   
    30    15    31 1   
    31    16    32 1   
    32    16    33 1   
    33    16    34 1   
    34    17    18 1   
    35    17    35 1   
    36    18    36 1   
    37    18    37 1   
    38    21    38 1   
    39    22    38 1   
    40    23    38 1   
@<TRIPOS>SUBSTRUCTURE
     1 47P         1 TEMP              0 ****  ****    0 ROOT
