@<TRIPOS>MOLECULE
47P
   38    40     1     0     0
SMALL
No Charge or Current Charge


@<TRIPOS>ATOM
      1 C4          -3.0410     2.3750     9.4430 cx         1 47P      -0.123900
      2 C6          -6.0440    -0.2800     9.5030 c3         1 47P       0.131500
      3 N1          -8.2680    -0.5990     8.4590 nc         1 47P      -0.644100
      4 C7          -7.3840     0.2470     8.9980 cd         1 47P       0.494900
      5 C8          -9.4450     0.0380     8.0240 ca         1 47P       0.190400
      6 N2          -7.5430     1.5950     9.1320 ns         1 47P      -0.416400
      7 C9         -10.4420    -0.7680     7.4430 ca         1 47P      -0.110000
      8 C10        -11.6490    -0.2160     6.9810 ca         1 47P      -0.075000
      9 C11        -11.8750     1.1630     7.0960 ca         1 47P      -0.138000
     10 C12        -10.8950     1.9860     7.6720 ca         1 47P      -0.039000
     11 C13         -9.6840     1.4260     8.1340 ca         1 47P      -0.205600
     12 C14         -8.6360     2.2810     8.7470 c          1 47P       0.575600
     13 O           -8.7330     3.4890     8.8990 o          1 47P      -0.547000
     14 N           -5.4210     0.4880    10.6420 n3         1 47P      -0.771600
     15 C1          -3.9540     0.2960    10.8080 c3         1 47P       0.226500
     16 C           -3.5400    -1.1660    11.0900 c3         1 47P      -0.119100
     17 C2          -3.1540     0.8800     9.6420 cx         1 47P      -0.135700
     18 C3          -1.8300     1.5750     9.8720 cx         1 47P      -0.123900
     19 H1          -3.0670     2.7520     8.4240 hc         1 47P       0.074450
     20 H2          -3.5090     3.0230    10.1800 hc         1 47P       0.074450
     21 H3          -5.7420     0.9780    12.6990 h1         1 47P       0.037700
     22 H4          -7.2250     0.6610    11.7820 h1         1 47P       0.037700
     23 H5          -6.1800    -0.6910    12.2630 h1         1 47P       0.037700
     24 H6          -6.1760    -1.3320     9.7880 h1         1 47P       0.069700
     25 H7          -5.3790    -0.2790     8.6310 h1         1 47P       0.069700
     26 H8          -6.8050     2.1220     9.5790 hn         1 47P       0.356500
     27 H9         -10.2760    -1.8380     7.3490 ha         1 47P       0.131000
     28 H10        -12.4060    -0.8580     6.5350 ha         1 47P       0.116000
     29 H11        -12.8080     1.5950     6.7390 ha         1 47P       0.118000
     30 H12        -11.0770     3.0560     7.7580 ha         1 47P       0.134000
     31 H14         -3.6480     0.8700    11.6950 h1         1 47P       0.059700
     32 H15         -4.0490    -1.5590    11.9770 hc         1 47P       0.041700
     33 H16         -3.7720    -1.8170    10.2390 hc         1 47P       0.041700
     34 H17         -2.4600    -1.2240    11.2740 hc         1 47P       0.041700
     35 H18         -3.2210     0.2750     8.7410 hc         1 47P       0.077700
     36 H19         -1.4830     1.6940    10.8960 hc         1 47P       0.074450
     37 H20         -1.0420     1.4170     9.1400 hc         1 47P       0.074450
     38 C5          -6.1810     0.3490    11.9120 c3         1 47P       0.163100
@<TRIPOS>BOND
     1     1    17 1   
     2     1    18 1   
     3     1    19 1   
     4     1    20 1   
     5     2     4 1   
     6     2    14 1   
     7     2    24 1   
     8     2    25 1   
     9     3     4 2   
    10     3     5 1   
    11     4     6 1   
    12     5     7 ar  
    13     5    11 ar  
    14     6    12 1   
    15     6    26 1   
    16     7     8 ar  
    17     7    27 1   
    18     8     9 ar  
    19     8    28 1   
    20     9    10 ar  
    21     9    29 1   
    22    10    11 ar  
    23    10    30 1   
    24    11    12 1   
    25    12    13 2   
    26    14    15 1   
    27    14    38 1   
    28    15    16 1   
    29    15    17 1   
    30    15    31 1   
    31    16    32 1   
    32    16    33 1   
    33    16    34 1   
    34    17    18 1   
    35    17    35 1   
    36    18    36 1   
    37    18    37 1   
    38    21    38 1   
    39    22    38 1   
    40    23    38 1   
@<TRIPOS>SUBSTRUCTURE
     1 47P         1 TEMP              0 ****  ****    0 ROOT
