@<TRIPOS>MOLECULE
47Q
   30    32     1     0     0
SMALL
bcc


@<TRIPOS>ATOM
      1 C4           0.3220     0.2210    -0.0310 ca         1 47Q       0.172600
      2 C5          -2.0220     0.9530     0.1690 c3         1 47Q       0.153500
      3 C6          -3.3970     0.3480     0.0920 ca         1 47Q       0.390600
      4 N1          -1.0290    -0.0840    -0.0080 nu         1 47Q      -0.731600
      5 C7          -4.1460     0.1310     1.2420 ca         1 47Q      -0.239300
      6 C8          -5.3980    -0.4580     1.1270 ca         1 47Q      -0.092000
      7 N2          -3.8370     0.0120    -1.1180 nb         1 47Q      -0.646000
      8 C9          -5.8540    -0.8090    -0.1320 ca         1 47Q      -0.241300
      9 C10         -5.0330    -0.5490    -1.2210 ca         1 47Q       0.403200
     10 C11          1.2460    -0.8260     0.1290 ca         1 47Q      -0.205000
     11 C12          2.5880    -0.5280     0.0510 ca         1 47Q       0.048600
     12 N3           3.7080    -1.3220     0.1630 ns         1 47Q      -0.462100
     13 O            6.0050    -0.9870     0.0470 o          1 47Q      -0.646500
     14 C            4.8560    -0.5800     0.0080 c          1 47Q       0.802500
     15 C1           3.0480     0.7730    -0.1790 ca         1 47Q      -0.043400
     16 N            4.4310     0.7040    -0.1980 ns         1 47Q      -0.456100
     17 C3           0.7900     1.5250    -0.2480 ca         1 47Q      -0.198000
     18 C2           2.1530     1.8080    -0.3290 ca         1 47Q      -0.085000
     19 H1          -1.9240     1.6880    -0.6320 h1         1 47Q       0.051700
     20 H2          -1.9020     1.4930     1.1180 h1         1 47Q       0.051700
     21 H3          -1.2400    -0.9280     0.5030 hn         1 47Q       0.404800
     22 H4          -3.7560     0.4160     2.2100 ha         1 47Q       0.141000
     23 H5          -6.0020    -0.6370     2.0070 ha         1 47Q       0.139000
     24 H6          -6.8220    -1.2700    -0.2760 ha         1 47Q       0.144000
     25 H7          -5.3610    -0.8050    -2.2230 h4         1 47Q       0.022100
     26 H8           0.9070    -1.8400     0.3040 ha         1 47Q       0.140000
     27 H9           3.7150    -2.3170     0.3210 hn         1 47Q       0.352500
     28 H10          5.0610     1.4740    -0.3520 hn         1 47Q       0.352500
     29 H11          0.0940     2.3440    -0.3580 ha         1 47Q       0.136000
     30 H12          2.4870     2.8230    -0.5000 ha         1 47Q       0.138000
@<TRIPOS>BOND
     1     1     4 1   
     2     1    10 ar  
     3     1    17 ar  
     4     2     3 1   
     5     2     4 1   
     6     2    19 1   
     7     2    20 1   
     8     3     5 ar  
     9     3     7 ar  
    10     4    21 1   
    11     5     6 ar  
    12     5    22 1   
    13     6     8 ar  
    14     6    23 1   
    15     7     9 ar  
    16     8     9 ar  
    17     8    24 1   
    18     9    25 1   
    19    10    11 ar  
    20    10    26 1   
    21    11    12 1   
    22    11    15 ar  
    23    12    14 1   
    24    12    27 1   
    25    13    14 2   
    26    14    16 1   
    27    15    16 1   
    28    15    18 ar  
    29    16    28 1   
    30    17    18 ar  
    31    17    29 1   
    32    18    30 1   
@<TRIPOS>SUBSTRUCTURE
     1 47Q         1 TEMP              0 ****  ****    0 ROOT
