@<TRIPOS>MOLECULE
47Q
   30    32     1     0     0
SMALL
No Charge or Current Charge


@<TRIPOS>ATOM
      1 C4           0.4200     0.2050     0.1530 ca         1 47Q       0.311000
      2 C5          -2.0660     0.9020     0.1670 c3         1 47Q       0.153500
      3 C6          -3.4690     0.2550     0.1220 ca         1 47Q       0.325300
      4 N1          -0.9460    -0.0760     0.1820 nu         1 47Q      -0.925200
      5 C7          -4.5530     0.8670     0.7830 ca         1 47Q      -0.156000
      6 C8          -5.8230     0.2690     0.7300 ca         1 47Q      -0.074000
      7 N2          -3.6080    -0.9050    -0.5760 nb         1 47Q      -0.646000
      8 C9          -5.9590    -0.9290     0.0110 ca         1 47Q      -0.158000
      9 C10         -4.8330    -1.4790    -0.6240 ca         1 47Q       0.337900
     10 C11          1.3110    -0.8230    -0.2260 ca         1 47Q      -0.187000
     11 C12          2.6720    -0.5130    -0.2460 ca         1 47Q       0.048600
     12 N3           3.8060    -1.2730    -0.5650 ns         1 47Q      -0.508600
     13 O            6.1160    -0.9610    -0.6610 o          1 47Q      -0.571000
     14 C            4.9800    -0.5800    -0.4550 c          1 47Q       0.593000
     15 C1           3.1480     0.7360     0.0890 ca         1 47Q      -0.043400
     16 N            4.5440     0.6520    -0.0510 ns         1 47Q      -0.502600
     17 C3           0.9140     1.4930     0.5000 ca         1 47Q      -0.180000
     18 C2           2.3000     1.7770     0.4710 ca         1 47Q      -0.067000
     19 H1          -1.9690     1.5590    -0.7080 h1         1 47Q       0.051700
     20 H2          -2.0080     1.5400     1.0590 h1         1 47Q       0.051700
     21 H3          -1.2050    -1.0260    -0.0930 hn         1 47Q       0.460000
     22 H4          -4.4080     1.7950     1.3290 ha         1 47Q       0.123000
     23 H5          -6.6760     0.7210     1.2320 ha         1 47Q       0.121000
     24 H6          -6.9210    -1.4290    -0.0590 ha         1 47Q       0.126000
     25 H7          -4.9120    -2.4070    -1.1890 h4         1 47Q       0.022100
     26 H8           0.9560    -1.8130    -0.4930 ha         1 47Q       0.122000
     27 H9           3.7780    -2.2450    -0.8530 hn         1 47Q       0.466000
     28 H10          5.1870     1.4190     0.1260 hn         1 47Q       0.466000
     29 H11          0.2260     2.2790     0.7950 ha         1 47Q       0.118000
     30 H12          2.6860     2.7600     0.7340 ha         1 47Q       0.120000
@<TRIPOS>BOND
     1     1     4 1   
     2     1    10 ar  
     3     1    17 ar  
     4     2     3 1   
     5     2     4 1   
     6     2    19 1   
     7     2    20 1   
     8     3     5 ar  
     9     3     7 ar  
    10     4    21 1   
    11     5     6 ar  
    12     5    22 1   
    13     6     8 ar  
    14     6    23 1   
    15     7     9 ar  
    16     8     9 ar  
    17     8    24 1   
    18     9    25 1   
    19    10    11 ar  
    20    10    26 1   
    21    11    12 1   
    22    11    15 ar  
    23    12    14 1   
    24    12    27 1   
    25    13    14 2   
    26    14    16 1   
    27    15    16 1   
    28    15    18 ar  
    29    16    28 1   
    30    17    18 ar  
    31    17    29 1   
    32    18    30 1   
@<TRIPOS>SUBSTRUCTURE
     1 47Q         1 TEMP              0 ****  ****    0 ROOT
