@<TRIPOS>MOLECULE
47R
   22    21     1     0     0
SMALL
bcc


@<TRIPOS>ATOM
      1 C4          -0.2730     1.1610     0.0890 c2         1 47R       0.639200
      2 C5          -1.6290     1.5190     0.6480 c3         1 47R      -0.188400
      3 N1           0.5790     2.0360    -0.3070 n2         1 47R      -0.864100
      4 N            0.0350    -0.1620     0.0250 nh         1 47R      -0.779600
      5 C2           1.3170    -0.5760    -0.5130 c3         1 47R       0.234800
      6 C3           2.4270    -0.5840     0.5290 c3         1 47R      -0.112100
      7 C1          -0.8290    -1.2180     0.5160 c3         1 47R       0.234800
      8 C           -1.6480    -1.8870    -0.5780 c3         1 47R      -0.112100
      9 H1          -2.4370     0.9620     0.1740 hc         1 47R       0.050700
     10 H2          -1.6810     1.3190     1.7190 hc         1 47R       0.050700
     11 H3          -1.8210     2.5800     0.5010 hc         1 47R       0.050700
     12 H4           0.1830     2.9630    -0.2130 hn         1 47R       0.377400
     13 H5           1.1980    -1.5760    -0.9350 h1         1 47R       0.046450
     14 H6           1.5860     0.0820    -1.3390 h1         1 47R       0.046450
     15 H7           2.5900     0.4160     0.9290 hc         1 47R       0.038700
     16 H8           2.1860    -1.2510     1.3580 hc         1 47R       0.038700
     17 H9           3.3630    -0.9290     0.0880 hc         1 47R       0.038700
     18 H10         -0.2020    -1.9650     1.0120 h1         1 47R       0.046450
     19 H11         -1.4870    -0.8340     1.2940 h1         1 47R       0.046450
     20 H12         -2.3190    -1.1760    -1.0630 hc         1 47R       0.038700
     21 H13         -1.0050    -2.3180    -1.3470 hc         1 47R       0.038700
     22 H14         -2.2540    -2.6920    -0.1620 hc         1 47R       0.038700
@<TRIPOS>BOND
     1     1     2 1   
     2     1     3 2   
     3     1     4 1   
     4     2     9 1   
     5     2    10 1   
     6     2    11 1   
     7     3    12 1   
     8     4     5 1   
     9     4     7 1   
    10     5     6 1   
    11     5    13 1   
    12     5    14 1   
    13     6    15 1   
    14     6    16 1   
    15     6    17 1   
    16     7     8 1   
    17     7    18 1   
    18     7    19 1   
    19     8    20 1   
    20     8    21 1   
    21     8    22 1   
@<TRIPOS>SUBSTRUCTURE
     1 47R         1 TEMP              0 ****  ****    0 ROOT
