@<TRIPOS>MOLECULE
47R
   22    21     1     0     0
SMALL
No Charge or Current Charge


@<TRIPOS>ATOM
      1 C4          -0.3000     1.1110     0.0600 c2         1 47R       0.639200
      2 C5          -1.6100     1.5210     0.6960 c3         1 47R      -0.188400
      3 N1           0.4560     1.9780    -0.4910 n2         1 47R      -0.864100
      4 N            0.0790    -0.2270     0.0350 nh         1 47R      -0.779600
      5 C2           1.4160    -0.6650    -0.4420 c3         1 47R       0.234800
      6 C3           2.5330    -0.4660     0.5990 c3         1 47R      -0.112100
      7 C1          -0.8240    -1.3210     0.4700 c3         1 47R       0.234800
      8 C           -1.7970    -1.7840    -0.6300 c3         1 47R      -0.112100
      9 H1          -2.4650     1.0810     0.1710 hc         1 47R       0.050700
     10 H2          -1.6530     1.2100     1.7460 hc         1 47R       0.050700
     11 H3          -1.7450     2.6080     0.6770 hc         1 47R       0.050700
     12 H4           0.0100     2.8980    -0.3880 hn         1 47R       0.377400
     13 H5           1.3900    -1.7350    -0.6950 h1         1 47R       0.046450
     14 H6           1.6850    -0.1430    -1.3710 h1         1 47R       0.046450
     15 H7           2.6470     0.5940     0.8540 hc         1 47R       0.038700
     16 H8           2.3080    -1.0230     1.5170 hc         1 47R       0.038700
     17 H9           3.4890    -0.8280     0.2030 hc         1 47R       0.038700
     18 H10         -0.2270    -2.1950     0.7670 h1         1 47R       0.046450
     19 H11         -1.3910    -1.0290     1.3630 h1         1 47R       0.046450
     20 H12         -2.4490    -0.9660    -0.9550 hc         1 47R       0.038700
     21 H13         -1.2440    -2.1510    -1.5030 hc         1 47R       0.038700
     22 H14         -2.4280    -2.5990    -0.2580 hc         1 47R       0.038700
@<TRIPOS>BOND
     1     1     2 1   
     2     1     3 2   
     3     1     4 1   
     4     2     9 1   
     5     2    10 1   
     6     2    11 1   
     7     3    12 1   
     8     4     5 1   
     9     4     7 1   
    10     5     6 1   
    11     5    13 1   
    12     5    14 1   
    13     6    15 1   
    14     6    16 1   
    15     6    17 1   
    16     7     8 1   
    17     7    18 1   
    18     7    19 1   
    19     8    20 1   
    20     8    21 1   
    21     8    22 1   
@<TRIPOS>SUBSTRUCTURE
     1 47R         1 TEMP              0 ****  ****    0 ROOT
