@<TRIPOS>MOLECULE
47S
   26    26     1     0     0
SMALL
No Charge or Current Charge


@<TRIPOS>ATOM
      1 C4           0.4800    -2.2350    -0.2670 ca         1 47S      -0.073000
      2 C5          -0.7490    -1.5760    -0.1090 ca         1 47S      -0.152000
      3 C6          -0.7930    -0.1760     0.0990 ca         1 47S      -0.108600
      4 N1          -3.2770    -0.1840     0.2290 ns         1 47S      -0.411300
      5 C7           0.4330     0.5330     0.1420 ca         1 47S      -0.145000
      6 C8          -2.1030     0.5790     0.2780 c          1 47S       0.631700
      7 N2          -4.6350     0.3410     0.3770 n8         1 47S      -0.717200
      8 O           -2.1380     1.7920     0.4570 o          1 47S      -0.565100
      9 C3           1.6810    -1.5120    -0.2200 ca         1 47S      -0.177000
     10 C2           1.6730    -0.1190    -0.0160 ca         1 47S       0.334000
     11 N            2.8900     0.6110     0.0300 nh         1 47S      -0.829400
     12 C1           4.1510    -0.0140     0.4940 c3         1 47S       0.217600
     13 C            2.9590     2.0300    -0.3960 c3         1 47S       0.217600
     14 H1           0.5010    -3.3110    -0.4290 ha         1 47S       0.109000
     15 H2          -1.6580    -2.1710    -0.1520 ha         1 47S       0.110000
     16 H3          -3.1500    -1.1840     0.0770 hn         1 47S       0.302500
     17 H4           0.4180     1.6050     0.3120 ha         1 47S       0.133000
     18 H5          -5.2080     0.1460    -0.4570 hn         1 47S       0.394500
     19 H6          -5.1220    -0.0920     1.1770 hn         1 47S       0.394500
     20 H7           2.6190    -2.0420    -0.3570 ha         1 47S       0.113000
     21 H8           4.6480    -0.5390    -0.3330 h1         1 47S       0.036867
     22 H9           4.8410     0.7440     0.8890 h1         1 47S       0.036867
     23 H10          3.9520    -0.7320     1.3010 h1         1 47S       0.036867
     24 H11          2.6880     2.6950     0.4350 h1         1 47S       0.036867
     25 H12          3.9720     2.2880    -0.7330 h1         1 47S       0.036867
     26 H13          2.2740     2.2160    -1.2350 h1         1 47S       0.036867
@<TRIPOS>BOND
     1     1     2 ar  
     2     1     9 ar  
     3     1    14 1   
     4     2     3 ar  
     5     2    15 1   
     6     3     5 ar  
     7     3     6 1   
     8     4     6 1   
     9     4     7 1   
    10     4    16 1   
    11     5    10 ar  
    12     5    17 1   
    13     6     8 2   
    14     7    18 1   
    15     7    19 1   
    16     9    10 ar  
    17     9    20 1   
    18    10    11 1   
    19    11    12 1   
    20    11    13 1   
    21    12    21 1   
    22    12    22 1   
    23    12    23 1   
    24    13    24 1   
    25    13    25 1   
    26    13    26 1   
@<TRIPOS>SUBSTRUCTURE
     1 47S         1 TEMP              0 ****  ****    0 ROOT
