@<TRIPOS>MOLECULE
47S
   26    26     1     0     0
SMALL
bcc


@<TRIPOS>ATOM
      1 C4           0.5140    -2.2610     0.2440 ca         1 47S      -0.091000
      2 C5          -0.7210    -1.6370     0.3510 ca         1 47S      -0.170000
      3 C6          -0.7680    -0.2450     0.3090 ca         1 47S      -0.108600
      4 N1          -3.1290    -0.1220    -0.0470 ns         1 47S      -0.478300
      5 C7           0.3980     0.4970     0.1700 ca         1 47S      -0.163000
      6 C8          -2.0530     0.5100     0.4600 c          1 47S       0.698700
      7 N2          -4.3940     0.4300     0.0520 n8         1 47S      -0.606800
      8 O           -2.0950     1.6070     0.9920 o          1 47S      -0.565100
      9 C3           1.6790    -1.5340     0.0860 ca         1 47S      -0.195000
     10 C2           1.6500    -0.1260     0.0290 ca         1 47S       0.195600
     11 N            2.7910     0.6040    -0.1540 nh         1 47S      -0.691000
     12 C1           4.0740    -0.0590    -0.1370 c3         1 47S       0.217600
     13 C            2.7440     2.0450    -0.0810 c3         1 47S       0.217600
     14 H1           0.5750    -3.3400     0.2940 ha         1 47S       0.127000
     15 H2          -1.6130    -2.2310     0.5000 ha         1 47S       0.128000
     16 H3          -3.0030    -0.9650    -0.5890 hn         1 47S       0.302500
     17 H4           0.3180     1.5750     0.1650 ha         1 47S       0.151000
     18 H5          -4.7370     0.6450    -0.8750 hn         1 47S       0.339300
     19 H6          -5.0170    -0.2600     0.4510 hn         1 47S       0.339300
     20 H7           2.6140    -2.0720     0.0080 ha         1 47S       0.131000
     21 H8           4.1450    -0.8220    -0.9150 h1         1 47S       0.036867
     22 H9           4.8560     0.6700    -0.3300 h1         1 47S       0.036867
     23 H10          4.2920    -0.5380     0.8230 h1         1 47S       0.036867
     24 H11          2.4230     2.4120     0.8990 h1         1 47S       0.036867
     25 H12          3.7340     2.4460    -0.2780 h1         1 47S       0.036867
     26 H13          2.0710     2.4650    -0.8330 h1         1 47S       0.036867
@<TRIPOS>BOND
     1     1     2 ar  
     2     1     9 ar  
     3     1    14 1   
     4     2     3 ar  
     5     2    15 1   
     6     3     5 ar  
     7     3     6 1   
     8     4     6 1   
     9     4     7 1   
    10     4    16 1   
    11     5    10 ar  
    12     5    17 1   
    13     6     8 2   
    14     7    18 1   
    15     7    19 1   
    16     9    10 ar  
    17     9    20 1   
    18    10    11 1   
    19    11    12 1   
    20    11    13 1   
    21    12    21 1   
    22    12    22 1   
    23    12    23 1   
    24    13    24 1   
    25    13    25 1   
    26    13    26 1   
@<TRIPOS>SUBSTRUCTURE
     1 47S         1 TEMP              0 ****  ****    0 ROOT
