@<TRIPOS>MOLECULE
47T
   36    37     1     0     0
SMALL
No Charge or Current Charge


@<TRIPOS>ATOM
      1 C4          -1.0380    -0.1190    -0.0970 c6         1 47T       0.112700
      2 C5          -1.8930    -1.4010     0.0650 c6         1 47T      -0.089400
      3 C6          -3.3200    -1.2050    -0.5050 c6         1 47T      -0.069400
      4 C7           1.4370     0.3650     0.1270 c          1 47T       0.576100
      5 C8           2.6340    -0.1310     1.0180 c5         1 47T       0.089300
      6 C9           3.2180    -1.4640     0.4790 c5         1 47T      -0.105400
      7 C10          4.0630    -0.9580    -0.7220 c5         1 47T      -0.112400
      8 C11          4.5230     0.4590    -0.2620 c5         1 47T       0.157600
      9 O            1.4370     1.2600    -0.7110 o          1 47T      -0.589100
     10 O1           3.7860     0.7480     0.9520 os         1 47T      -0.436000
     11 N            0.2950    -0.3280     0.4790 ns         1 47T      -0.509900
     12 C3          -1.7490     1.0740     0.5930 c6         1 47T      -0.089400
     13 C2          -3.1770     1.2860     0.0280 c6         1 47T      -0.069400
     14 C1          -4.0350    -0.0000     0.1650 c6         1 47T      -0.064700
     15 C           -5.4620     0.2050    -0.4090 c3         1 47T      -0.086100
     16 H1          -0.9260     0.1000    -1.1700 h1         1 47T       0.073700
     17 H2          -1.4050    -2.2400    -0.4500 hc         1 47T       0.045700
     18 H3          -1.9560    -1.6790     1.1260 hc         1 47T       0.045700
     19 H4          -3.2640    -1.0500    -1.5910 hc         1 47T       0.042950
     20 H5          -3.9060    -2.1220    -0.3510 hc         1 47T       0.042950
     21 H6           2.2910    -0.2120     2.0580 h1         1 47T       0.070700
     22 H7           3.8490    -1.9450     1.2350 hc         1 47T       0.057700
     23 H8           2.4500    -2.1890     0.1840 hc         1 47T       0.057700
     24 H9           4.9100    -1.6170    -0.9440 hc         1 47T       0.060700
     25 H10          3.4610    -0.8910    -1.6360 hc         1 47T       0.060700
     26 H11          5.5980     0.4950    -0.0420 h1         1 47T       0.049200
     27 H12          4.2970     1.2240    -1.0180 h1         1 47T       0.049200
     28 H13          0.3960    -1.0360     1.1960 hn         1 47T       0.306500
     29 H14         -1.8030     0.9020     1.6770 hc         1 47T       0.045700
     30 H15         -1.1620     1.9920     0.4520 hc         1 47T       0.045700
     31 H16         -3.6610     2.1180     0.5570 hc         1 47T       0.042950
     32 H17         -3.1130     1.5830    -1.0280 hc         1 47T       0.042950
     33 H18         -4.1640    -0.2220     1.2340 hc         1 47T       0.044700
     34 H19         -5.4320     0.4330    -1.4820 hc         1 47T       0.033367
     35 H20         -6.0750    -0.6940    -0.2750 hc         1 47T       0.033367
     36 H21         -5.9760     1.0330     0.0940 hc         1 47T       0.033367
@<TRIPOS>BOND
     1     1     2 1   
     2     1    11 1   
     3     1    12 1   
     4     1    16 1   
     5     2     3 1   
     6     2    17 1   
     7     2    18 1   
     8     3    14 1   
     9     3    19 1   
    10     3    20 1   
    11     4     5 1   
    12     4     9 2   
    13     4    11 1   
    14     5     6 1   
    15     5    10 1   
    16     5    21 1   
    17     6     7 1   
    18     6    22 1   
    19     6    23 1   
    20     7     8 1   
    21     7    24 1   
    22     7    25 1   
    23     8    10 1   
    24     8    26 1   
    25     8    27 1   
    26    11    28 1   
    27    12    13 1   
    28    12    29 1   
    29    12    30 1   
    30    13    14 1   
    31    13    31 1   
    32    13    32 1   
    33    14    15 1   
    34    14    33 1   
    35    15    34 1   
    36    15    35 1   
    37    15    36 1   
@<TRIPOS>SUBSTRUCTURE
     1 47T         1 TEMP              0 ****  ****    0 ROOT
