@<TRIPOS>MOLECULE
47T
   36    37     1     0     0
SMALL
bcc


@<TRIPOS>ATOM
      1 C4          -1.0780    -0.1850     0.0110 c6         1 47T       0.112700
      2 C5          -1.9550    -1.4150     0.2200 c6         1 47T      -0.089400
      3 C6          -3.3410    -1.2100    -0.3820 c6         1 47T      -0.069400
      4 C7           1.3480     0.2150     0.2010 c          1 47T       0.643100
      5 C8           2.6120    -0.2270     0.9370 c5         1 47T       0.066100
      6 C9           3.2370    -1.4470     0.2540 c5         1 47T      -0.105400
      7 C10          4.0880    -0.7900    -0.8290 c5         1 47T      -0.112400
      8 C11          4.5250     0.5100    -0.1590 c5         1 47T       0.134400
      9 O            1.3830     1.0360    -0.7040 o          1 47T      -0.589100
     10 O1           3.5880     0.7780     0.8810 os         1 47T      -0.389600
     11 N            0.2300    -0.4090     0.5990 ns         1 47T      -0.576900
     12 C3          -1.7540     1.0620     0.5770 c6         1 47T      -0.089400
     13 C2          -3.1360     1.2610    -0.0360 c6         1 47T      -0.069400
     14 C1          -4.0320     0.0400     0.1610 c6         1 47T      -0.064700
     15 C           -5.3980     0.2420    -0.4810 c3         1 47T      -0.086100
     16 H1          -0.9340    -0.0440    -1.0650 h1         1 47T       0.073700
     17 H2          -1.4760    -2.2930    -0.2210 hc         1 47T       0.045700
     18 H3          -2.0500    -1.6110     1.2950 hc         1 47T       0.045700
     19 H4          -3.2550    -1.1250    -1.4720 hc         1 47T       0.042950
     20 H5          -3.9580    -2.0910    -0.1890 hc         1 47T       0.042950
     21 H6           2.3740    -0.4310     1.9870 h1         1 47T       0.070700
     22 H7           3.8640    -1.9840     0.9690 hc         1 47T       0.057700
     23 H8           2.4990    -2.1480    -0.1360 hc         1 47T       0.057700
     24 H9           4.9390    -1.4030    -1.1250 hc         1 47T       0.060700
     25 H10          3.4950    -0.5920    -1.7220 hc         1 47T       0.060700
     26 H11          5.5220     0.4140     0.2820 h1         1 47T       0.049200
     27 H12          4.5490     1.3470    -0.8610 h1         1 47T       0.049200
     28 H13          0.2790    -1.0120     1.4060 hn         1 47T       0.306500
     29 H14         -1.8410     0.9550     1.6630 hc         1 47T       0.045700
     30 H15         -1.1260     1.9360     0.3920 hc         1 47T       0.045700
     31 H16         -3.6090     2.1480     0.3950 hc         1 47T       0.042950
     32 H17         -3.0340     1.4590    -1.1100 hc         1 47T       0.042950
     33 H18         -4.1760    -0.0990     1.2410 hc         1 47T       0.044700
     34 H19         -5.3020     0.4050    -1.5580 hc         1 47T       0.033367
     35 H20         -6.0410    -0.6270    -0.3350 hc         1 47T       0.033367
     36 H21         -5.9110     1.1090    -0.0620 hc         1 47T       0.033367
@<TRIPOS>BOND
     1     1     2 1   
     2     1    11 1   
     3     1    12 1   
     4     1    16 1   
     5     2     3 1   
     6     2    17 1   
     7     2    18 1   
     8     3    14 1   
     9     3    19 1   
    10     3    20 1   
    11     4     5 1   
    12     4     9 2   
    13     4    11 1   
    14     5     6 1   
    15     5    10 1   
    16     5    21 1   
    17     6     7 1   
    18     6    22 1   
    19     6    23 1   
    20     7     8 1   
    21     7    24 1   
    22     7    25 1   
    23     8    10 1   
    24     8    26 1   
    25     8    27 1   
    26    11    28 1   
    27    12    13 1   
    28    12    29 1   
    29    12    30 1   
    30    13    14 1   
    31    13    31 1   
    32    13    32 1   
    33    14    15 1   
    34    14    33 1   
    35    15    34 1   
    36    15    35 1   
    37    15    36 1   
@<TRIPOS>SUBSTRUCTURE
     1 47T         1 TEMP              0 ****  ****    0 ROOT
