@<TRIPOS>MOLECULE
47U
   34    35     1     0     0
SMALL
bcc


@<TRIPOS>ATOM
      1 C4           2.7910     2.2300    -1.0490 c3         1 47U      -0.030800
      2 C5           1.9840    -0.1880    -0.5080 cc         1 47U      -0.266600
      3 C6           0.6420    -0.2270    -1.1430 c3         1 47U      -0.070100
      4 N1           3.9390     0.4290     0.2350 na         1 47U       0.112400
      5 C7          -0.4950     0.0530    -0.1690 c          1 47U       0.669100
      6 C8          -2.9930    -0.0720    -0.1800 ca         1 47U       0.557200
      7 N2          -1.7180    -0.2430    -0.7080 ns         1 47U      -0.573400
      8 C9          -4.0770    -0.4090    -1.0010 ca         1 47U      -0.305300
      9 C10         -5.3520    -0.2480    -0.5000 ca         1 47U      -0.062000
     10 C11         -5.5170     0.2410     0.7920 ca         1 47U      -0.286300
     11 C12         -4.3780     0.5400     1.5140 ca         1 47U       0.439200
     12 N3          -3.1400     0.3890     1.0480 nb         1 47U      -0.680000
     13 O           -0.3190     0.5040     0.9390 o          1 47U      -0.512100
     14 C3           2.8760     0.8630    -0.4710 cd         1 47U      -0.059600
     15 C2           5.1720     1.1380     0.4720 c3         1 47U       0.041600
     16 N            3.7990    -0.8340     0.6480 nd         1 47U      -0.521800
     17 C1           2.6150    -1.2210     0.2130 cc         1 47U       0.344600
     18 C            2.0800    -2.5810     0.5040 c3         1 47U      -0.121400
     19 H1           3.5900     2.4180    -1.7680 hc         1 47U       0.050700
     20 H2           1.8430     2.3610    -1.5670 hc         1 47U       0.050700
     21 H3           2.8540     2.9990    -0.2780 hc         1 47U       0.050700
     22 H4           0.5720     0.5150    -1.9450 hc         1 47U       0.058200
     23 H5           0.4700    -1.1940    -1.6270 hc         1 47U       0.058200
     24 H6          -1.6990    -0.6160    -1.6450 hn         1 47U       0.313500
     25 H7          -3.9170    -0.7850    -2.0030 ha         1 47U       0.136000
     26 H8          -6.2090    -0.4990    -1.1110 ha         1 47U       0.135000
     27 H9          -6.4970     0.3840     1.2240 ha         1 47U       0.144000
     28 H10         -4.4580     0.9240     2.5250 h4         1 47U       0.023100
     29 H11          5.8350     1.0870    -0.3920 h1         1 47U       0.055367
     30 H12          4.9700     2.1830     0.6970 h1         1 47U       0.055367
     31 H13          5.6720     0.6910     1.3270 h1         1 47U       0.055367
     32 H14          1.7400    -3.0790    -0.4050 hc         1 47U       0.047367
     33 H15          2.8400    -3.2080     0.9660 hc         1 47U       0.047367
     34 H16          1.2260    -2.5370     1.1830 hc         1 47U       0.047367
@<TRIPOS>BOND
     1     1    14 1   
     2     1    19 1   
     3     1    20 1   
     4     1    21 1   
     5     2     3 1   
     6     2    14 2   
     7     2    17 1   
     8     3     5 1   
     9     3    22 1   
    10     3    23 1   
    11     4    14 1   
    12     4    15 1   
    13     4    16 1   
    14     5     7 1   
    15     5    13 2   
    16     6     7 1   
    17     6     8 ar  
    18     6    12 ar  
    19     7    24 1   
    20     8     9 ar  
    21     8    25 1   
    22     9    10 ar  
    23     9    26 1   
    24    10    11 ar  
    25    10    27 1   
    26    11    12 ar  
    27    11    28 1   
    28    15    29 1   
    29    15    30 1   
    30    15    31 1   
    31    16    17 2   
    32    17    18 1   
    33    18    32 1   
    34    18    33 1   
    35    18    34 1   
@<TRIPOS>SUBSTRUCTURE
     1 47U         1 TEMP              0 ****  ****    0 ROOT
