@<TRIPOS>MOLECULE
47U
   34    35     1     0     0
SMALL
No Charge or Current Charge


@<TRIPOS>ATOM
      1 C4           3.2390     2.2830    -1.1040 c3         1 47U      -0.030800
      2 C5           1.9040     0.0770    -0.7320 cc         1 47U      -0.201300
      3 C6           0.7160     0.2520    -1.6590 c3         1 47U      -0.070100
      4 N1           3.7530     0.2750     0.4360 na         1 47U       0.133800
      5 C7          -0.5580     0.7380    -0.9480 c          1 47U       0.602100
      6 C8          -2.7950    -0.1700    -0.2040 ca         1 47U       0.491900
      7 N2          -1.5440    -0.2220    -0.8310 ns         1 47U      -0.339900
      8 C9          -3.8580    -0.9610    -0.6670 ca         1 47U      -0.222000
      9 C10         -5.0790    -0.9380     0.0250 ca         1 47U      -0.044000
     10 C11         -5.1670    -0.1300     1.1690 ca         1 47U      -0.203000
     11 C12         -4.0430     0.6080     1.5770 ca         1 47U       0.373900
     12 N3          -2.8670     0.5850     0.9110 nb         1 47U      -0.680000
     13 O           -0.6730     1.8890    -0.5470 o          1 47U      -0.512100
     14 C3           2.9470     0.9270    -0.5070 cd         1 47U      -0.110300
     15 C2           5.0150     0.7710     1.0080 c3         1 47U       0.070900
     16 N            3.2380    -0.9520     0.8190 nd         1 47U      -0.521800
     17 C1           2.1360    -1.0380     0.1040 cc         1 47U       0.279300
     18 C            1.2110    -2.2230     0.1850 c3         1 47U      -0.121400
     19 H1           3.8970     2.1930    -1.9760 hc         1 47U       0.050700
     20 H2           2.3190     2.7820    -1.4280 hc         1 47U       0.050700
     21 H3           3.7300     2.9440    -0.3800 hc         1 47U       0.050700
     22 H4           0.9730     0.9900    -2.4270 hc         1 47U       0.058200
     23 H5           0.5150    -0.7020    -2.1600 hc         1 47U       0.058200
     24 H6          -1.3380    -1.1090    -1.2680 hn         1 47U       0.147000
     25 H7          -3.7360    -1.5790    -1.5520 ha         1 47U       0.118000
     26 H8          -5.9270    -1.5310    -0.3120 ha         1 47U       0.117000
     27 H9          -6.0880    -0.0780     1.7420 ha         1 47U       0.126000
     28 H10         -4.0840     1.2340     2.4690 h4         1 47U       0.023100
     29 H11          5.6880     1.0760     0.1980 h1         1 47U       0.055367
     30 H12          4.8080     1.6330     1.6530 h1         1 47U       0.055367
     31 H13          5.4960    -0.0170     1.5990 h1         1 47U       0.055367
     32 H14          1.0300    -2.6490    -0.8080 hc         1 47U       0.047367
     33 H15          1.6360    -3.0140     0.8130 hc         1 47U       0.047367
     34 H16          0.2480    -1.9350     0.6190 hc         1 47U       0.047367
@<TRIPOS>BOND
     1     1    14 1   
     2     1    19 1   
     3     1    20 1   
     4     1    21 1   
     5     2     3 1   
     6     2    14 2   
     7     2    17 1   
     8     3     5 1   
     9     3    22 1   
    10     3    23 1   
    11     4    14 1   
    12     4    15 1   
    13     4    16 1   
    14     5     7 1   
    15     5    13 2   
    16     6     7 1   
    17     6     8 ar  
    18     6    12 ar  
    19     7    24 1   
    20     8     9 ar  
    21     8    25 1   
    22     9    10 ar  
    23     9    26 1   
    24    10    11 ar  
    25    10    27 1   
    26    11    12 ar  
    27    11    28 1   
    28    15    29 1   
    29    15    30 1   
    30    15    31 1   
    31    16    17 2   
    32    17    18 1   
    33    18    32 1   
    34    18    33 1   
    35    18    34 1   
@<TRIPOS>SUBSTRUCTURE
     1 47U         1 TEMP              0 ****  ****    0 ROOT
