@<TRIPOS>MOLECULE
47V
   28    29     1     0     0
SMALL
abcg2


@<TRIPOS>ATOM
      1 C4           0.1450    -0.6540    -0.1460 c          1 47V       0.659700
      2 C5          -2.1440     0.3030    -0.0340 ca         1 47V       0.023000
      3 C6          -2.8480     1.4610     0.3110 ca         1 47V      -0.211500
      4 N1          -4.9510     0.4020    -0.1110 nb         1 47V      -0.684000
      5 C7          -4.2270     1.4550     0.2570 ca         1 47V       0.356900
      6 C8          -4.2760    -0.6920    -0.4400 ca         1 47V       0.356900
      7 C9          -2.8950    -0.8080    -0.4230 ca         1 47V      -0.211500
      8 C10          2.6070    -1.0570     0.1180 cc         1 47V       0.236300
      9 C11          2.7400    -2.5190     0.3150 c3         1 47V      -0.134400
     10 O           -0.1740    -1.8140    -0.3360 o          1 47V      -0.580100
     11 C3           1.5440    -0.2210    -0.0720 cd         1 47V      -0.257600
     12 C2           2.0910     1.1020    -0.1960 cd         1 47V      -0.167000
     13 O1           3.7370    -0.3330     0.1190 os         1 47V      -0.242000
     14 C1           3.4290     0.9760    -0.0770 cc         1 47V       0.142300
     15 C            4.5450     1.9460    -0.1230 c3         1 47V      -0.123400
     16 N           -0.7620     0.3580     0.0220 ns         1 47V      -0.143000
     17 H1          -2.3250     2.3560     0.6230 ha         1 47V       0.135500
     18 H2          -4.7730     2.3520     0.5280 h4         1 47V       0.017100
     19 H3          -4.8660    -1.5510    -0.7420 h4         1 47V       0.017100
     20 H4          -2.4410    -1.7410    -0.7110 ha         1 47V       0.135500
     21 H5           2.8010    -3.0440    -0.6400 hc         1 47V       0.068700
     22 H6           3.6430    -2.7500     0.8790 hc         1 47V       0.068700
     23 H7           1.8840    -2.9190     0.8520 hc         1 47V       0.068700
     24 H8           1.5650     2.0270    -0.3790 ha         1 47V       0.140000
     25 H9           5.1230     1.9400     0.8020 hc         1 47V       0.057700
     26 H10          5.2320     1.7360    -0.9450 hc         1 47V       0.057700
     27 H11          4.1490     2.9500    -0.2650 hc         1 47V       0.057700
     28 H12         -0.3900     1.2570     0.2870 hn         1 47V       0.156000
@<TRIPOS>BOND
     1     1    10 2   
     2     1    11 1   
     3     1    16 1   
     4     2     3 ar  
     5     2     7 ar  
     6     2    16 1   
     7     3     5 ar  
     8     3    17 1   
     9     4     5 ar  
    10     4     6 ar  
    11     5    18 1   
    12     6     7 ar  
    13     6    19 1   
    14     7    20 1   
    15     8     9 1   
    16     8    11 2   
    17     8    13 1   
    18     9    21 1   
    19     9    22 1   
    20     9    23 1   
    21    11    12 1   
    22    12    14 2   
    23    12    24 1   
    24    13    14 1   
    25    14    15 1   
    26    15    25 1   
    27    15    26 1   
    28    15    27 1   
    29    16    28 1   
@<TRIPOS>SUBSTRUCTURE
     1 47V         1 TEMP              0 ****  ****    0 ROOT
