@<TRIPOS>MOLECULE
47V
   28    29     1     0     0
SMALL
No Charge or Current Charge


@<TRIPOS>ATOM
      1 C4           0.1720    -0.7700    -0.0350 c          1 47V       0.659700
      2 C5          -2.1610     0.3010    -0.0770 ca         1 47V       0.023000
      3 C6          -2.8080     1.5480    -0.0710 ca         1 47V      -0.211500
      4 N1          -4.9900     0.5020    -0.1450 nb         1 47V      -0.684000
      5 C7          -4.2100     1.6050    -0.1060 ca         1 47V       0.356900
      6 C8          -4.3730    -0.7010    -0.1500 ca         1 47V       0.356900
      7 C9          -2.9760    -0.8470    -0.1170 ca         1 47V      -0.211500
      8 C10          2.6830    -1.1020     0.0220 cc         1 47V       0.236300
      9 C11          2.8330    -2.5960     0.0020 c3         1 47V      -0.134400
     10 O           -0.1340    -1.9560    -0.0620 o          1 47V      -0.580100
     11 C3           1.5770    -0.2860     0.0070 cd         1 47V      -0.257600
     12 C2           2.0700     1.0460     0.0410 cd         1 47V      -0.167000
     13 O1           3.8290    -0.3380     0.0630 os         1 47V      -0.242000
     14 C1           3.4330     0.9760     0.0740 cc         1 47V       0.142300
     15 C            4.4760     2.0530     0.1170 c3         1 47V      -0.123400
     16 N           -0.7410     0.2740    -0.0410 ns         1 47V      -0.143000
     17 H1          -2.2380     2.4720    -0.0410 ha         1 47V       0.135500
     18 H2          -4.7270     2.5650    -0.1020 h4         1 47V       0.017100
     19 H3          -5.0200    -1.5770    -0.1820 h4         1 47V       0.017100
     20 H4          -2.5640    -1.8490    -0.1250 ha         1 47V       0.135500
     21 H5           2.3850    -3.0190    -0.9050 hc         1 47V       0.068700
     22 H6           3.8900    -2.8870     0.0240 hc         1 47V       0.068700
     23 H7           2.3410    -3.0470     0.8710 hc         1 47V       0.068700
     24 H8           1.4900     1.9650     0.0410 ha         1 47V       0.140000
     25 H9           5.0930     1.9590     1.0180 hc         1 47V       0.057700
     26 H10          5.1350     1.9890    -0.7560 hc         1 47V       0.057700
     27 H11          4.0130     3.0460     0.1230 hc         1 47V       0.057700
     28 H12         -0.3150     1.1900    -0.0160 hn         1 47V       0.156000
@<TRIPOS>BOND
     1     1    10 2   
     2     1    11 1   
     3     1    16 1   
     4     2     3 ar  
     5     2     7 ar  
     6     2    16 1   
     7     3     5 ar  
     8     3    17 1   
     9     4     5 ar  
    10     4     6 ar  
    11     5    18 1   
    12     6     7 ar  
    13     6    19 1   
    14     7    20 1   
    15     8     9 1   
    16     8    11 2   
    17     8    13 1   
    18     9    21 1   
    19     9    22 1   
    20     9    23 1   
    21    11    12 1   
    22    12    14 2   
    23    12    24 1   
    24    13    14 1   
    25    14    15 1   
    26    15    25 1   
    27    15    26 1   
    28    15    27 1   
    29    16    28 1   
@<TRIPOS>SUBSTRUCTURE
     1 47V         1 TEMP              0 ****  ****    0 ROOT
