@<TRIPOS>MOLECULE
47W
   56    59     1     0     0
SMALL
abcg2


@<TRIPOS>ATOM
      1 C1          -3.3310     3.0700     0.0610 c3         1 47W       0.141900
      2 O2          -3.9790     1.8940     0.5240 os         1 47W      -0.419100
      3 C3          -3.2410     0.8100     0.8250 ca         1 47W       0.193100
      4 C4          -1.8620     0.7610     0.7300 ca         1 47W      -0.225000
      5 C5          -1.1890    -0.4220     1.0500 ca         1 47W       0.254100
      6 O6           0.1480    -0.3690     0.9260 os         1 47W      -0.305100
      7 C7           0.8880    -1.5510     1.1850 c3         1 47W       0.262700
      8 C8           2.2860    -1.2790     0.8930 c1         1 47W      -0.213100
      9 C9           3.4470    -1.0950     0.6340 cg         1 47W       0.011000
     10 C10          4.8220    -0.8740     0.3330 ca         1 47W      -0.019000
     11 C11          5.8000    -1.7870     0.8140 ca         1 47W      -0.075000
     12 C12          7.1240    -1.6040     0.5370 ca         1 47W      -0.092000
     13 C13          7.5470    -0.4950    -0.2310 ca         1 47W       0.006000
     14 C14          8.8950    -0.2380    -0.5580 ca         1 47W      -0.147000
     15 C15          9.2000     0.8640    -1.3060 ca         1 47W       0.344900
     16 N16          8.2770     1.7410    -1.7620 nb         1 47W      -0.651000
     17 C17          7.0240     1.5200    -1.4710 ca         1 47W       0.366900
     18 C18          6.5760     0.4160    -0.7050 ca         1 47W      -0.111000
     19 C19          5.2130     0.2120    -0.4160 ca         1 47W      -0.037000
     20 C20         -1.8930    -1.5470     1.4590 ca         1 47W      -0.223000
     21 C21         -3.2780    -1.4770     1.5320 ca         1 47W       0.007000
     22 C22         -3.9730    -0.3210     1.2260 ca         1 47W      -0.297300
     23 C23         -5.4600    -0.2670     1.3410 c3         1 47W       0.199900
     24 N24         -6.1220     0.0730     0.0310 nx         1 47W      -0.679000
     25 C26         -7.6030     0.1170     0.1780 c6         1 47W       0.066100
     26 C27         -8.2640     0.5250    -1.1160 c6         1 47W       0.070600
     27 N28         -7.8700    -0.3980    -2.2100 ny         1 47W      -0.828000
     28 C31         -6.3940    -0.4660    -2.3650 c6         1 47W       0.070600
     29 C32         -5.7430    -0.8640    -1.0620 c6         1 47W       0.066100
     30 HN24        -5.7910     1.0140    -0.2110 hn         1 47W       0.529000
     31 HN28        -8.2530    -1.3320    -2.0450 hn         1 47W       0.534000
     32 HN2A        -8.2910    -0.0860    -3.0870 hn         1 47W       0.534000
     33 H1          -2.7790     2.8840    -0.8620 h1         1 47W       0.067033
     34 H1A         -4.1150     3.7960    -0.1320 h1         1 47W       0.067033
     35 H1B         -2.6500     3.4720     0.8140 h1         1 47W       0.067033
     36 H4          -1.2860     1.6190     0.4110 ha         1 47W       0.165000
     37 H7           0.7790    -1.8600     2.2310 h1         1 47W       0.061200
     38 H7A          0.5370    -2.3800     0.5600 h1         1 47W       0.061200
     39 H11          5.4820    -2.6350     1.4060 ha         1 47W       0.123000
     40 H12          7.8590    -2.3080     0.9060 ha         1 47W       0.132000
     41 H14          9.6770    -0.9060    -0.2210 ha         1 47W       0.134000
     42 H15         10.2290     1.0810    -1.5690 h4         1 47W       0.032100
     43 H17          6.2930     2.2310    -1.8450 h4         1 47W       0.019100
     44 H19          4.4770     0.9160    -0.7860 ha         1 47W       0.119000
     45 H20         -1.4030    -2.4730     1.7250 ha         1 47W       0.157000
     46 H21         -3.8280    -2.3560     1.8460 ha         1 47W       0.125000
     47 H23         -5.8610    -1.2300     1.6560 hx         1 47W       0.103200
     48 H23A        -5.8010     0.4920     2.0460 hx         1 47W       0.103200
     49 H26         -7.9280    -0.8710     0.5060 hx         1 47W       0.140700
     50 H26A        -7.8490     0.8410     0.9510 hx         1 47W       0.140700
     51 H27         -9.3440     0.4870    -1.0060 hx         1 47W       0.140950
     52 H27A        -7.9760     1.5310    -1.4190 hx         1 47W       0.140950
     53 H31         -6.1630    -1.2040    -3.1280 hx         1 47W       0.140950
     54 H31A        -6.0590     0.5110    -2.7100 hx         1 47W       0.140950
     55 H32         -4.6620    -0.8450    -1.1880 hx         1 47W       0.140700
     56 H32A        -6.0370    -1.8660    -0.7490 hx         1 47W       0.140700
@<TRIPOS>BOND
     1     1     2 1   
     2     1    33 1   
     3     1    34 1   
     4     1    35 1   
     5     2     3 1   
     6     3     4 ar  
     7     3    22 ar  
     8     4     5 ar  
     9     4    36 1   
    10     5     6 1   
    11     5    20 ar  
    12     6     7 1   
    13     7     8 1   
    14     7    37 1   
    15     7    38 1   
    16     8     9 3   
    17     9    10 1   
    18    10    11 ar  
    19    10    19 ar  
    20    11    12 ar  
    21    11    39 1   
    22    12    13 ar  
    23    12    40 1   
    24    13    14 ar  
    25    13    18 ar  
    26    14    15 ar  
    27    14    41 1   
    28    15    16 ar  
    29    15    42 1   
    30    16    17 ar  
    31    17    18 ar  
    32    17    43 1   
    33    18    19 ar  
    34    19    44 1   
    35    20    21 ar  
    36    20    45 1   
    37    21    22 ar  
    38    21    46 1   
    39    22    23 1   
    40    23    24 1   
    41    23    47 1   
    42    23    48 1   
    43    24    25 1   
    44    24    29 1   
    45    24    30 1   
    46    25    26 1   
    47    25    49 1   
    48    25    50 1   
    49    26    27 1   
    50    26    51 1   
    51    26    52 1   
    52    27    28 1   
    53    27    31 1   
    54    27    32 1   
    55    28    29 1   
    56    28    53 1   
    57    28    54 1   
    58    29    55 1   
    59    29    56 1   
@<TRIPOS>SUBSTRUCTURE
     1 47W         1 TEMP              0 ****  ****    0 ROOT
