@<TRIPOS>MOLECULE
47W
   56    59     1     0     0
SMALL
No Charge or Current Charge


@<TRIPOS>ATOM
      1 C1          -3.2830     2.7720    -0.4810 c3         1 47W       0.141900
      2 O2          -3.9380     1.6440     0.1340 os         1 47W      -0.419100
      3 C3          -3.2390     0.5550     0.6200 ca         1 47W       0.193100
      4 C4          -1.8400     0.4520     0.5010 ca         1 47W      -0.225000
      5 C5          -1.1660    -0.6730     0.9900 ca         1 47W       0.254100
      6 O6           0.2040    -0.7120     0.8420 os         1 47W      -0.305100
      7 C7           0.9940    -1.8170     1.3070 c3         1 47W       0.262700
      8 C8           2.4010    -1.5400     0.9940 c1         1 47W      -0.213100
      9 C9           3.5550    -1.2760     0.7230 cg         1 47W       0.011000
     10 C10          4.9140    -0.9530     0.3970 ca         1 47W      -0.019000
     11 C11          5.9510    -1.8460     0.7330 ca         1 47W      -0.075000
     12 C12          7.2850    -1.5320     0.4150 ca         1 47W      -0.092000
     13 C13          7.5820    -0.3240    -0.2400 ca         1 47W       0.006000
     14 C14          8.9000     0.0250    -0.5740 ca         1 47W      -0.147000
     15 C15          9.1380     1.2460    -1.2290 ca         1 47W       0.344900
     16 N16          8.1510     2.1130    -1.5570 nb         1 47W      -0.651000
     17 C17          6.8790     1.7730    -1.2340 ca         1 47W       0.366900
     18 C18          6.5480     0.5710    -0.5770 ca         1 47W      -0.111000
     19 C19          5.2130     0.2560    -0.2590 ca         1 47W      -0.037000
     20 C20         -1.8940    -1.7120     1.6050 ca         1 47W      -0.223000
     21 C21         -3.2880    -1.6150     1.7260 ca         1 47W       0.007000
     22 C22         -3.9650    -0.4850     1.2350 ca         1 47W      -0.297300
     23 C23         -5.4720    -0.4060     1.3840 c3         1 47W       0.199900
     24 N24         -6.1380    -0.0160     0.0840 nx         1 47W      -0.679000
     25 C26         -7.5770     0.5200     0.2750 c6         1 47W       0.066100
     26 C27         -8.1420     1.0990    -1.0440 c6         1 47W       0.070600
     27 N28         -7.9640     0.0150    -2.1620 ny         1 47W      -0.828000
     28 C31         -6.5490    -0.6290    -2.3610 c6         1 47W       0.070600
     29 C32         -6.0600    -1.1320    -0.9840 c6         1 47W       0.066100
     30 HN24        -5.5400     0.7820    -0.2470 hn         1 47W       0.529000
     31 HN28        -8.6560    -0.7510    -1.9950 hn         1 47W       0.534000
     32 HN2A        -8.2930     0.4080    -3.0750 hn         1 47W       0.534000
     33 H1          -2.7300     2.4650    -1.3780 h1         1 47W       0.067033
     34 H1A         -4.0210     3.5260    -0.7820 h1         1 47W       0.067033
     35 H1B         -2.5820     3.2470     0.2180 h1         1 47W       0.067033
     36 H4          -1.2530     1.2330     0.0300 ha         1 47W       0.165000
     37 H7           0.8870    -1.9450     2.3920 h1         1 47W       0.061200
     38 H7A          0.6940    -2.7480     0.8100 h1         1 47W       0.061200
     39 H11          5.7250    -2.7820     1.2400 ha         1 47W       0.123000
     40 H12          8.0810    -2.2260     0.6770 ha         1 47W       0.132000
     41 H14          9.7330    -0.6300    -0.3360 ha         1 47W       0.134000
     42 H15         10.1520     1.5400    -1.4990 h4         1 47W       0.032100
     43 H17          6.1060     2.4890    -1.5100 h4         1 47W       0.019100
     44 H19          4.4130     0.9470    -0.5190 ha         1 47W       0.119000
     45 H20         -1.4000    -2.5970     1.9930 ha         1 47W       0.157000
     46 H21         -3.8430    -2.4230     2.2030 ha         1 47W       0.125000
     47 H23         -5.8880    -1.3610     1.7180 hx         1 47W       0.103200
     48 H23A        -5.7220     0.3460     2.1380 hx         1 47W       0.103200
     49 H26         -8.1990    -0.3070     0.6350 hx         1 47W       0.140700
     50 H26A        -7.5660     1.2870     1.0590 hx         1 47W       0.140700
     51 H27         -9.2060     1.3570    -0.9620 hx         1 47W       0.140950
     52 H27A        -7.5890     1.9930    -1.3550 hx         1 47W       0.140950
     53 H31         -6.6260    -1.4410    -3.0970 hx         1 47W       0.140950
     54 H31A        -5.8840     0.1450    -2.7620 hx         1 47W       0.140950
     55 H32         -5.0210    -1.4800    -1.0440 hx         1 47W       0.140700
     56 H32A        -6.6680    -1.9740    -0.6370 hx         1 47W       0.140700
@<TRIPOS>BOND
     1     1     2 1   
     2     1    33 1   
     3     1    34 1   
     4     1    35 1   
     5     2     3 1   
     6     3     4 ar  
     7     3    22 ar  
     8     4     5 ar  
     9     4    36 1   
    10     5     6 1   
    11     5    20 ar  
    12     6     7 1   
    13     7     8 1   
    14     7    37 1   
    15     7    38 1   
    16     8     9 3   
    17     9    10 1   
    18    10    11 ar  
    19    10    19 ar  
    20    11    12 ar  
    21    11    39 1   
    22    12    13 ar  
    23    12    40 1   
    24    13    14 ar  
    25    13    18 ar  
    26    14    15 ar  
    27    14    41 1   
    28    15    16 ar  
    29    15    42 1   
    30    16    17 ar  
    31    17    18 ar  
    32    17    43 1   
    33    18    19 ar  
    34    19    44 1   
    35    20    21 ar  
    36    20    45 1   
    37    21    22 ar  
    38    21    46 1   
    39    22    23 1   
    40    23    24 1   
    41    23    47 1   
    42    23    48 1   
    43    24    25 1   
    44    24    29 1   
    45    24    30 1   
    46    25    26 1   
    47    25    49 1   
    48    25    50 1   
    49    26    27 1   
    50    26    51 1   
    51    26    52 1   
    52    27    28 1   
    53    27    31 1   
    54    27    32 1   
    55    28    29 1   
    56    28    53 1   
    57    28    54 1   
    58    29    55 1   
    59    29    56 1   
@<TRIPOS>SUBSTRUCTURE
     1 47W         1 TEMP              0 ****  ****    0 ROOT
