@<TRIPOS>MOLECULE
47X
   30    32     1     0     0
SMALL
No Charge or Current Charge


@<TRIPOS>ATOM
      1 CAA          4.4840     1.2890     0.4220 ca         1 47X      -0.180000
      2 CAB          4.8850    -0.0330     0.2050 ca         1 47X       0.199100
      3 CAC          3.9280    -1.0220    -0.0530 ca         1 47X      -0.253000
      4 CAD          3.1210     1.6230     0.3790 ca         1 47X       0.010000
      5 CAE          2.1590     0.6220     0.1200 ca         1 47X      -0.267600
      6 CAF          2.5610    -0.7000    -0.0880 ca         1 47X       0.189100
      7 OAG          1.6900    -1.7320    -0.3770 os         1 47X      -0.205200
      8 CAH          0.3310    -1.5060    -0.1970 cc         1 47X       0.039100
      9 CAI         -0.1910    -0.2160    -0.1320 cd         1 47X      -0.218400
     10 CAJ          0.7190     0.9410     0.0670 c          1 47X       0.603900
     11 CAK         -1.6720    -0.0430    -0.0750 ca         1 47X      -0.027800
     12 CAL         -2.4950    -1.0750     0.4390 ca         1 47X      -0.119000
     13 CAM         -3.8910    -0.9280     0.4880 ca         1 47X       0.118100
     14 CAN         -4.5010     0.2480     0.0150 ca         1 47X       0.049100
     15 CAO         -3.7050     1.2750    -0.5110 ca         1 47X      -0.161000
     16 CAP         -2.3060     1.1300    -0.5560 ca         1 47X      -0.073000
     17 OAQ         -5.8630     0.3850     0.0620 oh         1 47X      -0.558100
     18 OAR         -4.6690    -1.9250     1.0000 oh         1 47X      -0.537100
     19 OAS          6.2080    -0.3520     0.2430 oh         1 47X      -0.521100
     20 OAT          0.3390     2.0930     0.2330 o          1 47X      -0.537100
     21 HAA          5.2270     2.0570     0.6220 ha         1 47X       0.138000
     22 HAC          4.2340    -2.0490    -0.2280 ha         1 47X       0.135000
     23 HAD          2.8210     2.6570     0.5460 ha         1 47X       0.142000
     24 HAH         -0.2390    -2.4250    -0.2830 h4         1 47X       0.234000
     25 HAL         -2.0660    -1.9870     0.8390 ha         1 47X       0.127000
     26 HAO         -4.1600     2.1860    -0.8940 ha         1 47X       0.115000
     27 HAP         -1.7280     1.9290    -1.0100 ha         1 47X       0.128000
     28 HOAQ        -6.1070     1.2630    -0.3080 ho         1 47X       0.475000
     29 HOAR        -5.5960    -1.6020     0.9330 ho         1 47X       0.482000
     30 HOAS         6.2960    -1.3130     0.0690 ho         1 47X       0.473000
@<TRIPOS>BOND
     1     1     2 ar  
     2     1     4 ar  
     3     1    21 1   
     4     2     3 ar  
     5     2    19 1   
     6     3     6 ar  
     7     3    22 1   
     8     4     5 ar  
     9     4    23 1   
    10     5     6 ar  
    11     5    10 1   
    12     6     7 1   
    13     7     8 1   
    14     8     9 2   
    15     8    24 1   
    16     9    10 1   
    17     9    11 1   
    18    10    20 2   
    19    11    12 ar  
    20    11    16 ar  
    21    12    13 ar  
    22    12    25 1   
    23    13    14 ar  
    24    13    18 1   
    25    14    15 ar  
    26    14    17 1   
    27    15    16 ar  
    28    15    26 1   
    29    16    27 1   
    30    17    28 1   
    31    18    29 1   
    32    19    30 1   
@<TRIPOS>SUBSTRUCTURE
     1 47X         1 TEMP              0 ****  ****    0 ROOT
