@<TRIPOS>MOLECULE
47X
   30    32     1     0     0
SMALL
abcg2


@<TRIPOS>ATOM
      1 CAA          4.4350     1.2210     0.5140 ca         1 47X      -0.180000
      2 CAB          4.8280    -0.0840     0.1670 ca         1 47X       0.199100
      3 CAC          3.8760    -1.0410    -0.1460 ca         1 47X      -0.253000
      4 CAD          3.1030     1.5450     0.5440 ca         1 47X       0.010000
      5 CAE          2.1140     0.6000     0.2320 ca         1 47X      -0.267600
      6 CAF          2.5340    -0.6830    -0.1080 ca         1 47X       0.189100
      7 OAG          1.6430    -1.6460    -0.4230 os         1 47X      -0.205200
      8 CAH          0.3370    -1.3660    -0.4080 cc         1 47X       0.039100
      9 CAI         -0.1980    -0.1720    -0.0880 cd         1 47X      -0.218400
     10 CAJ          0.6920     0.9330     0.2690 c          1 47X       0.603900
     11 CAK         -1.6630    -0.0050    -0.0690 ca         1 47X      -0.027800
     12 CAL         -2.4590    -0.9340     0.6030 ca         1 47X      -0.119000
     13 CAM         -3.8400    -0.8240     0.6110 ca         1 47X       0.118100
     14 CAN         -4.4490     0.2450    -0.0580 ca         1 47X       0.049100
     15 CAO         -3.6620     1.1730    -0.7210 ca         1 47X      -0.161000
     16 CAP         -2.2790     1.0540    -0.7270 ca         1 47X      -0.073000
     17 OAQ         -5.7990     0.2940    -0.0020 oh         1 47X      -0.558100
     18 OAR         -4.5640    -1.7490     1.2780 oh         1 47X      -0.537100
     19 OAS          6.1400    -0.3410     0.1540 oh         1 47X      -0.521100
     20 OAT          0.2860     2.0430     0.5840 o          1 47X      -0.537100
     21 HAA          5.1890     1.9590     0.7540 ha         1 47X       0.138000
     22 HAC          4.1590    -2.0500    -0.4190 ha         1 47X       0.135000
     23 HAD          2.8010     2.5480     0.8130 ha         1 47X       0.142000
     24 HAH         -0.2550    -2.2260    -0.6940 h4         1 47X       0.234000
     25 HAL         -2.0020    -1.7540     1.1450 ha         1 47X       0.127000
     26 HAO         -4.1330     1.9990    -1.2410 ha         1 47X       0.115000
     27 HAP         -1.6920     1.7850    -1.2650 ha         1 47X       0.128000
     28 HOAQ        -6.1350     1.0730    -0.4590 ho         1 47X       0.475000
     29 HOAR        -5.5050    -1.5460     1.2240 ho         1 47X       0.482000
     30 HOAS         6.3130    -1.2570    -0.0950 ho         1 47X       0.473000
@<TRIPOS>BOND
     1     1     2 ar  
     2     1     4 ar  
     3     1    21 1   
     4     2     3 ar  
     5     2    19 1   
     6     3     6 ar  
     7     3    22 1   
     8     4     5 ar  
     9     4    23 1   
    10     5     6 ar  
    11     5    10 1   
    12     6     7 1   
    13     7     8 1   
    14     8     9 2   
    15     8    24 1   
    16     9    10 1   
    17     9    11 1   
    18    10    20 2   
    19    11    12 ar  
    20    11    16 ar  
    21    12    13 ar  
    22    12    25 1   
    23    13    14 ar  
    24    13    18 1   
    25    14    15 ar  
    26    14    17 1   
    27    15    16 ar  
    28    15    26 1   
    29    16    27 1   
    30    17    28 1   
    31    18    29 1   
    32    19    30 1   
@<TRIPOS>SUBSTRUCTURE
     1 47X         1 TEMP              0 ****  ****    0 ROOT
