@<TRIPOS>MOLECULE
47Z
   25    25     1     0     0
SMALL
bcc


@<TRIPOS>ATOM
      1 N5         -10.0030    19.3170    41.2530 n8         1 47Z      -0.864800
      2 C4          -9.1160    20.3150    40.6870 c3         1 47Z       0.150200
      3 C2          -8.5460    21.2420    41.7830 c3         1 47Z      -0.053700
      4 C3          -7.7830    20.4830    42.8620 c3         1 47Z      -0.087100
      5 C1          -9.6500    22.0990    42.3950 c3         1 47Z      -0.087100
      6 C6          -8.0100    19.6290    39.9430 cc         1 47Z       0.416800
      7 N7          -7.6080    18.3820    40.0970 nd         1 47Z      -0.675000
      8 C8          -6.5920    18.2740    39.2180 cd         1 47Z       0.514900
      9 N9          -6.3450    19.3640    38.5360 nc         1 47Z      -0.541800
     10 N10         -7.2610    20.2220    39.0010 na         1 47Z      -0.033400
     11 C11         -7.3050    21.5760    38.5020 c3         1 47Z       0.042600
     12 H1         -10.8050    19.7810    41.6580 hn         1 47Z       0.347300
     13 H2         -10.3700    18.7260    40.5180 hn         1 47Z       0.347300
     14 H4          -9.6310    20.9700    39.9660 h1         1 47Z       0.014700
     15 H5          -7.8470    21.9230    41.2860 hc         1 47Z       0.038700
     16 H6          -7.3780    21.1780    43.5980 hc         1 47Z       0.039200
     17 H7          -8.4350    19.7840    43.3860 hc         1 47Z       0.039200
     18 H8          -6.9460    19.9160    42.4530 hc         1 47Z       0.039200
     19 H9          -9.2240    22.8430    43.0690 hc         1 47Z       0.039200
     20 H10        -10.2170    22.6330    41.6300 hc         1 47Z       0.039200
     21 H11        -10.3540    21.5040    42.9810 hc         1 47Z       0.039200
     22 H12         -6.0230    17.3680    39.0750 h5         1 47Z       0.063100
     23 H13         -7.1520    21.5660    37.4260 h1         1 47Z       0.057700
     24 H14         -8.2760    22.0140    38.7120 h1         1 47Z       0.057700
     25 H15         -6.5340    22.1880    38.9680 h1         1 47Z       0.057700
@<TRIPOS>BOND
     1     1     2 1   
     2     1    12 1   
     3     1    13 1   
     4     2     3 1   
     5     2     6 1   
     6     2    14 1   
     7     3     4 1   
     8     3     5 1   
     9     3    15 1   
    10     4    16 1   
    11     4    17 1   
    12     4    18 1   
    13     5    19 1   
    14     5    20 1   
    15     5    21 1   
    16     6     7 2   
    17     6    10 1   
    18     7     8 1   
    19     8     9 2   
    20     8    22 1   
    21     9    10 1   
    22    10    11 1   
    23    11    23 1   
    24    11    24 1   
    25    11    25 1   
@<TRIPOS>SUBSTRUCTURE
     1 47Z         1 TEMP              0 ****  ****    0 ROOT
