@<TRIPOS>MOLECULE
47Z
   25    25     1     0     0
SMALL
No Charge or Current Charge


@<TRIPOS>ATOM
      1 N5         -10.1070    19.3190    41.2920 n8         1 47Z      -0.975200
      2 C4          -9.0900    20.2650    40.7330 c3         1 47Z       0.150200
      3 C2          -8.5460    21.2250    41.8380 c3         1 47Z      -0.053700
      4 C3          -7.7600    20.4960    42.9570 c3         1 47Z      -0.087100
      5 C1          -9.6500    22.1350    42.4320 c3         1 47Z      -0.087100
      6 C6          -7.9590    19.5930    39.9270 cc         1 47Z       0.416800
      7 N7          -7.5360    18.3420    40.0410 nd         1 47Z      -0.675000
      8 C8          -6.5250    18.2300    39.1040 cd         1 47Z       0.514900
      9 N9          -6.3050    19.3410    38.4110 nc         1 47Z      -0.541800
     10 N10         -7.2190    20.2000    38.9320 na         1 47Z      -0.062700
     11 C11         -7.3290    21.5830    38.4330 c3         1 47Z       0.071900
     12 H1         -10.8990    19.8560    41.6600 hn         1 47Z       0.402500
     13 H2         -10.5150    18.7700    40.5260 hn         1 47Z       0.402500
     14 H4          -9.6410    20.8880    40.0160 h1         1 47Z       0.014700
     15 H5          -7.8330    21.8990    41.3480 hc         1 47Z       0.038700
     16 H6          -7.3430    21.2180    43.6680 hc         1 47Z       0.039200
     17 H7          -8.4090    19.8090    43.5140 hc         1 47Z       0.039200
     18 H8          -6.9260    19.9190    42.5410 hc         1 47Z       0.039200
     19 H9          -9.2120    22.8830    43.1050 hc         1 47Z       0.039200
     20 H10        -10.1820    22.6710    41.6360 hc         1 47Z       0.039200
     21 H11        -10.3820    21.5540    43.0060 hc         1 47Z       0.039200
     22 H12         -5.9740    17.3060    38.9620 h5         1 47Z       0.063100
     23 H13         -6.8170    21.6760    37.4680 h1         1 47Z       0.057700
     24 H14         -8.3850    21.8490    38.3020 h1         1 47Z       0.057700
     25 H15         -6.8670    22.2710    39.1510 h1         1 47Z       0.057700
@<TRIPOS>BOND
     1     1     2 1   
     2     1    12 1   
     3     1    13 1   
     4     2     3 1   
     5     2     6 1   
     6     2    14 1   
     7     3     4 1   
     8     3     5 1   
     9     3    15 1   
    10     4    16 1   
    11     4    17 1   
    12     4    18 1   
    13     5    19 1   
    14     5    20 1   
    15     5    21 1   
    16     6     7 2   
    17     6    10 1   
    18     7     8 1   
    19     8     9 2   
    20     8    22 1   
    21     9    10 1   
    22    10    11 1   
    23    11    23 1   
    24    11    24 1   
    25    11    25 1   
@<TRIPOS>SUBSTRUCTURE
     1 47Z         1 TEMP              0 ****  ****    0 ROOT
