@<TRIPOS>MOLECULE
480
   37    36     1     0     0
SMALL
No Charge or Current Charge


@<TRIPOS>ATOM
      1 C8          -7.7050     0.3740    -1.0590 c3         1 480      -0.088100
      2 C24          5.1170    -0.7270    -0.8830 c3         1 480       0.128600
      3 C7          -6.3570    -0.3660    -0.9630 c3         1 480      -0.075400
      4 C6          -5.2890     0.4220    -0.1730 c3         1 480      -0.075400
      5 C5          -3.9380    -0.3200    -0.0770 c3         1 480      -0.074400
      6 C4          -2.8700     0.4690     0.7130 c3         1 480      -0.075400
      7 C3          -1.5190    -0.2730     0.8090 c3         1 480      -0.068400
      8 C2          -0.4500     0.5170     1.6010 c3         1 480      -0.136400
      9 C21          3.0050    -0.5410     0.5710 c3         1 480       0.127600
     10 C1           0.8740    -0.2480     1.6650 c          1 480       0.591100
     11 C22          3.7950     0.0430    -0.6300 c3         1 480       0.164300
     12 O19          1.1190    -1.1110     2.4980 o          1 480      -0.491000
     13 O23          4.1080     1.4320    -0.4070 oh         1 480      -0.626000
     14 O20          1.7210     0.1140     0.6510 os         1 480      -0.434100
     15 H1          -8.4290    -0.2230    -1.6270 hc         1 480       0.031700
     16 H2          -8.1190     0.5560    -0.0600 hc         1 480       0.031700
     17 H3          -7.5830     1.3390    -1.5650 hc         1 480       0.031700
     18 H4           5.7220    -0.7260     0.0330 h1         1 480       0.021700
     19 H5           4.8820    -1.7720    -1.1270 h1         1 480       0.021700
     20 H6          -6.5180    -1.3400    -0.4840 hc         1 480       0.036700
     21 H7          -5.9860    -0.5640    -1.9760 hc         1 480       0.036700
     22 H8          -5.1320     1.3960    -0.6530 hc         1 480       0.037700
     23 H9          -5.6640     0.6210     0.8390 hc         1 480       0.037700
     24 H10         -4.0950    -1.2940     0.4030 hc         1 480       0.039200
     25 H11         -3.5630    -0.5180    -1.0890 hc         1 480       0.039200
     26 H12         -2.7140     1.4430     0.2330 hc         1 480       0.038200
     27 H13         -3.2450     0.6670     1.7250 hc         1 480       0.038200
     28 H14         -1.6760    -1.2480     1.2880 hc         1 480       0.053700
     29 H15         -1.1440    -0.4720    -0.2030 hc         1 480       0.053700
     30 H16         -0.2880     1.4680     1.0810 hc         1 480       0.073700
     31 H17         -0.8140     0.6900     2.6200 hc         1 480       0.073700
     32 H18          2.8730    -1.6210     0.4240 h1         1 480       0.050700
     33 H19          3.5800    -0.3900     1.4940 h1         1 480       0.050700
     34 H20          3.1700    -0.0670    -1.5270 h1         1 480       0.097700
     35 H21          6.6480    -0.6680    -2.1180 ho         1 480       0.445000
     36 H22          4.8610     1.6170    -1.0130 ho         1 480       0.436000
     37 O25          5.8470    -0.1180    -1.9630 oh         1 480      -0.642000
@<TRIPOS>BOND
     1     1     3 1   
     2     1    15 1   
     3     1    16 1   
     4     1    17 1   
     5     2    11 1   
     6     2    18 1   
     7     2    19 1   
     8     2    37 1   
     9     3     4 1   
    10     3    20 1   
    11     3    21 1   
    12     4     5 1   
    13     4    22 1   
    14     4    23 1   
    15     5     6 1   
    16     5    24 1   
    17     5    25 1   
    18     6     7 1   
    19     6    26 1   
    20     6    27 1   
    21     7     8 1   
    22     7    28 1   
    23     7    29 1   
    24     8    10 1   
    25     8    30 1   
    26     8    31 1   
    27     9    11 1   
    28     9    14 1   
    29     9    32 1   
    30     9    33 1   
    31    10    12 2   
    32    10    14 1   
    33    11    13 1   
    34    11    34 1   
    35    13    36 1   
    36    35    37 1   
@<TRIPOS>SUBSTRUCTURE
     1 480         1 TEMP              0 ****  ****    0 ROOT
