@<TRIPOS>MOLECULE
480
   37    36     1     0     0
SMALL
bcc


@<TRIPOS>ATOM
      1 C8          -7.9990     0.5710    -0.2060 c3         1 480      -0.088100
      2 C24          5.6270    -0.4290    -0.1990 c3         1 480       0.105400
      3 C7          -6.7720    -0.3070    -0.0030 c3         1 480      -0.075400
      4 C6          -5.4630     0.4620    -0.1360 c3         1 480      -0.075400
      5 C5          -4.2310    -0.4110     0.0650 c3         1 480      -0.074400
      6 C4          -2.9210     0.3510    -0.0790 c3         1 480      -0.075400
      7 C3          -1.7010    -0.5340     0.1400 c3         1 480      -0.068400
      8 C2          -0.3970     0.2310    -0.0190 c3         1 480      -0.136400
      9 C21          3.1830    -0.6260     0.1340 c3         1 480       0.104400
     10 C1           0.8260    -0.6120     0.2220 c          1 480       0.640100
     11 C22          4.2970     0.2960    -0.3300 c3         1 480       0.141100
     12 O19          0.8190    -1.7440     0.6370 o          1 480      -0.540000
     13 O23          4.2840     1.5300     0.3440 oh         1 480      -0.563800
     14 O20          1.9420     0.0490    -0.0710 os         1 480      -0.410900
     15 H1          -8.9230    -0.0010    -0.1200 hc         1 480       0.031700
     16 H2          -8.0370     1.3750     0.5320 hc         1 480       0.031700
     17 H3          -7.9910     1.0350    -1.1950 hc         1 480       0.031700
     18 H4           5.8080    -0.6620     0.8610 h1         1 480       0.021700
     19 H5           5.5580    -1.3890    -0.7270 h1         1 480       0.021700
     20 H6          -6.8160    -0.7780     0.9840 hc         1 480       0.036700
     21 H7          -6.7850    -1.1260    -0.7290 hc         1 480       0.036700
     22 H8          -5.4210     0.9330    -1.1240 hc         1 480       0.037700
     23 H9          -5.4510     1.2820     0.5910 hc         1 480       0.037700
     24 H10         -4.2730    -0.8760     1.0560 hc         1 480       0.039200
     25 H11         -4.2500    -1.2360    -0.6560 hc         1 480       0.039200
     26 H12         -2.8730     0.8060    -1.0750 hc         1 480       0.038200
     27 H13         -2.9030     1.1820     0.6350 hc         1 480       0.038200
     28 H14         -1.7500    -0.9770     1.1380 hc         1 480       0.053700
     29 H15         -1.7260    -1.3680    -0.5680 hc         1 480       0.053700
     30 H16         -0.3270     0.6780    -1.0150 hc         1 480       0.073700
     31 H17         -0.3620     1.0730     0.6820 hc         1 480       0.073700
     32 H18          3.2060    -1.5570    -0.4360 h1         1 480       0.050700
     33 H19          3.3040    -0.8750     1.1940 h1         1 480       0.050700
     34 H20          4.1340     0.5310    -1.3870 h1         1 480       0.097700
     35 H21          7.4780    -0.0800    -0.6320 ho         1 480       0.406000
     36 H22          4.4840     1.3770     1.2750 ho         1 480       0.397000
     37 O25          6.6430     0.3860    -0.7300 oh         1 480      -0.579800
@<TRIPOS>BOND
     1     1     3 1   
     2     1    15 1   
     3     1    16 1   
     4     1    17 1   
     5     2    11 1   
     6     2    18 1   
     7     2    19 1   
     8     2    37 1   
     9     3     4 1   
    10     3    20 1   
    11     3    21 1   
    12     4     5 1   
    13     4    22 1   
    14     4    23 1   
    15     5     6 1   
    16     5    24 1   
    17     5    25 1   
    18     6     7 1   
    19     6    26 1   
    20     6    27 1   
    21     7     8 1   
    22     7    28 1   
    23     7    29 1   
    24     8    10 1   
    25     8    30 1   
    26     8    31 1   
    27     9    11 1   
    28     9    14 1   
    29     9    32 1   
    30     9    33 1   
    31    10    12 2   
    32    10    14 1   
    33    11    13 1   
    34    11    34 1   
    35    13    36 1   
    36    35    37 1   
@<TRIPOS>SUBSTRUCTURE
     1 480         1 TEMP              0 ****  ****    0 ROOT
