@<TRIPOS>MOLECULE
481
   81    86     1     0     0
SMALL
No Charge or Current Charge


@<TRIPOS>ATOM
      1 O34          1.6260    -5.3010    -0.6140 o          1 481      -0.583100
      2 C32          1.5600    -4.1080    -0.3330 c          1 481       0.623700
      3 C33          2.8140    -3.2800    -0.1000 ca         1 481      -0.162600
      4 C39          2.7590    -1.8990     0.2020 ca         1 481      -0.073500
      5 C38          3.9380    -1.1630     0.4030 ca         1 481      -0.121000
      6 C37          5.2110    -1.7650     0.3120 ca         1 481      -0.034300
      7 C40          6.4810    -0.9020     0.5460 c3         1 481      -0.002700
      8 C43          7.8020    -1.7050     0.3790 c3         1 481      -0.086767
      9 C42          6.5040     0.2700    -0.4740 c3         1 481      -0.086767
     10 C41          6.4480    -0.3280     1.9880 c3         1 481      -0.086767
     11 C36          5.2610    -3.1470     0.0120 ca         1 481      -0.121000
     12 C35          4.0840    -3.8890    -0.1900 ca         1 481      -0.073500
     13 N31          0.3600    -3.4180    -0.2100 ns         1 481      -0.143000
     14 C13         -0.9980    -3.7940    -0.3990 ca         1 481      -0.023000
     15 C12         -1.9700    -2.8080    -0.1530 ca         1 481      -0.131000
     16 C14         -1.4110    -5.0670    -0.8420 ca         1 481      -0.119000
     17 C15         -2.7750    -5.3290    -1.0450 ca         1 481      -0.091000
     18 C16         -3.7370    -4.3330    -0.8090 ca         1 481      -0.127000
     19 C11         -3.3510    -3.0570    -0.3340 ca         1 481      -0.112500
     20 C3          -4.3310    -1.9650    -0.1360 cc         1 481       0.425500
     21 N2          -3.8780    -0.6530    -0.2590 nc         1 481      -0.765000
     22 C4          -5.6340    -2.3430     0.2030 cd         1 481      -0.202000
     23 N6          -6.5140    -1.2840     0.3420 na         1 481       0.167100
     24 C5          -6.1160     0.0000     0.2750 cd         1 481      -0.180000
     25 N9          -7.1350     0.7980     0.5690 nc         1 481      -0.280600
     26 C8          -8.1840    -0.0560     0.8550 cc         1 481      -0.044400
     27 C7          -7.8170    -1.3850     0.7430 cd         1 481      -0.261100
     28 C1          -4.7650     0.2930    -0.0510 cd         1 481       0.681900
     29 N10         -4.3510     1.5840    -0.0860 nu         1 481      -0.924900
     30 C17         -3.1280     2.2360    -0.2860 ca         1 481       0.322000
     31 C20         -2.9820     3.5380     0.2200 ca         1 481      -0.153500
     32 C21         -1.7730     4.2400     0.0700 ca         1 481      -0.052000
     33 C22         -0.6750     3.6440    -0.5850 ca         1 481      -0.172600
     34 C19         -0.8370     2.3550    -1.1360 ca         1 481      -0.052000
     35 C18         -2.0500     1.6620    -0.9880 ca         1 481      -0.153500
     36 C23          0.6190     4.4140    -0.7390 c          1 481       0.624700
     37 O24          0.6040     5.6310    -0.8760 o          1 481      -0.595100
     38 N25          1.8280     3.6880    -0.8240 n          1 481      -0.412800
     39 C30          3.0930     4.3380    -1.2710 c6         1 481       0.096500
     40 C29          4.0550     4.6380    -0.0890 c6         1 481       0.139800
     41 N28          4.3330     3.4160     0.7180 n3         1 481      -0.722600
     42 C44          5.3010     3.6600     1.8080 c3         1 481       0.150100
     43 C27          3.0620     2.8090     1.2010 c6         1 481       0.139800
     44 C26          2.0870     2.4900     0.0310 c6         1 481       0.096500
     45 H1           1.8130    -1.3710     0.2840 ha         1 481       0.120000
     46 H2           3.8510    -0.1050     0.6330 ha         1 481       0.125500
     47 H3           7.8860    -2.1220    -0.6320 hc         1 481       0.038033
     48 H4           8.6740    -1.0610     0.5450 hc         1 481       0.038033
     49 H5           7.8590    -2.5280     1.1030 hc         1 481       0.038033
     50 H6           5.6440     0.9370    -0.3460 hc         1 481       0.038033
     51 H7           7.4100     0.8770    -0.3540 hc         1 481       0.038033
     52 H8           6.4850    -0.1110    -1.5020 hc         1 481       0.038033
     53 H9           6.4120    -1.1380     2.7260 hc         1 481       0.038033
     54 H10          7.3400     0.2770     2.1910 hc         1 481       0.038033
     55 H11          5.5720     0.3110     2.1480 hc         1 481       0.038033
     56 H12          6.2070    -3.6740    -0.0720 ha         1 481       0.125500
     57 H13          4.1680    -4.9490    -0.4210 ha         1 481       0.120000
     58 H14          0.4740    -2.4470     0.0450 hn         1 481       0.153000
     59 H15         -1.6400    -1.8270     0.1850 ha         1 481       0.131000
     60 H16         -0.6950    -5.8560    -1.0500 ha         1 481       0.152000
     61 H17         -3.0880    -6.3070    -1.4060 ha         1 481       0.117000
     62 H18         -4.7790    -4.5620    -1.0160 ha         1 481       0.110000
     63 H19         -6.0030    -3.3460     0.3530 h4         1 481       0.157000
     64 H20         -9.1520     0.3500     1.1410 h4         1 481       0.232000
     65 H21         -8.3490    -2.3170     0.9020 h4         1 481       0.236000
     66 H22         -5.1070     2.1840     0.2310 hn         1 481       0.525000
     67 H23         -3.8060     4.0110     0.7470 ha         1 481       0.133000
     68 H24         -1.6840     5.2450     0.4800 ha         1 481       0.124000
     69 H25         -0.0300     1.8890    -1.6980 ha         1 481       0.124000
     70 H26         -2.1410     0.6820    -1.4420 ha         1 481       0.133000
     71 H27          3.6010     3.6650    -1.9770 h1         1 481       0.061450
     72 H28          2.8820     5.2680    -1.8160 h1         1 481       0.061450
     73 H29          4.9910     5.0510    -0.4920 h1         1 481       0.041950
     74 H30          3.6030     5.4170     0.5440 h1         1 481       0.041950
     75 H32          5.5210     2.7300     2.3480 h1         1 481       0.033700
     76 H33          6.2470     4.0490     1.4060 h1         1 481       0.033700
     77 H34          4.9060     4.3910     2.5270 h1         1 481       0.033700
     78 H35          3.2660     1.8810     1.7550 h1         1 481       0.041950
     79 H36          2.5580     3.4940     1.8990 h1         1 481       0.041950
     80 H37          1.1560     2.1000     0.4620 h1         1 481       0.061450
     81 H38          2.5190     1.6950    -0.5930 h1         1 481       0.061450
@<TRIPOS>BOND
     1     1     2 2   
     2     2     3 1   
     3     2    13 1   
     4     3     4 ar  
     5     3    12 ar  
     6     4     5 ar  
     7     4    45 1   
     8     5     6 ar  
     9     5    46 1   
    10     6     7 1   
    11     6    11 ar  
    12     7     8 1   
    13     7     9 1   
    14     7    10 1   
    15     8    47 1   
    16     8    48 1   
    17     8    49 1   
    18     9    50 1   
    19     9    51 1   
    20     9    52 1   
    21    10    53 1   
    22    10    54 1   
    23    10    55 1   
    24    11    12 ar  
    25    11    56 1   
    26    12    57 1   
    27    13    14 1   
    28    13    58 1   
    29    14    15 ar  
    30    14    16 ar  
    31    15    19 ar  
    32    15    59 1   
    33    16    17 ar  
    34    16    60 1   
    35    17    18 ar  
    36    17    61 1   
    37    18    19 ar  
    38    18    62 1   
    39    19    20 1   
    40    20    21 1   
    41    20    22 2   
    42    21    28 2   
    43    22    23 1   
    44    22    63 1   
    45    23    24 1   
    46    23    27 1   
    47    24    25 2   
    48    24    28 1   
    49    25    26 1   
    50    26    27 2   
    51    26    64 1   
    52    27    65 1   
    53    28    29 1   
    54    29    30 1   
    55    29    66 1   
    56    30    31 ar  
    57    30    35 ar  
    58    31    32 ar  
    59    31    67 1   
    60    32    33 ar  
    61    32    68 1   
    62    33    34 ar  
    63    33    36 1   
    64    34    35 ar  
    65    34    69 1   
    66    35    70 1   
    67    36    37 2   
    68    36    38 1   
    69    38    39 1   
    70    38    44 1   
    71    39    40 1   
    72    39    71 1   
    73    39    72 1   
    74    40    41 1   
    75    40    73 1   
    76    40    74 1   
    77    41    42 1   
    78    41    43 1   
    79    42    75 1   
    80    42    76 1   
    81    42    77 1   
    82    43    44 1   
    83    43    78 1   
    84    43    79 1   
    85    44    80 1   
    86    44    81 1   
@<TRIPOS>SUBSTRUCTURE
     1 481         1 TEMP              0 ****  ****    0 ROOT
