@<TRIPOS>MOLECULE
481
   81    86     1     0     0
SMALL
abcg2


@<TRIPOS>ATOM
      1 O34          1.6600    -4.9450    -0.0660 o          1 481      -0.583100
      2 C32          1.5890    -3.7280    -0.0180 c          1 481       0.623700
      3 C33          2.8210    -2.8880     0.0130 ca         1 481      -0.162600
      4 C39          2.8810    -1.6130     0.5750 ca         1 481      -0.073500
      5 C38          4.0640    -0.8950     0.5710 ca         1 481      -0.121000
      6 C37          5.2320    -1.4110     0.0040 ca         1 481      -0.034300
      7 C40          6.5070    -0.5780     0.0070 c3         1 481      -0.002700
      8 C43          7.6760    -1.3010    -0.6610 c3         1 481      -0.086767
      9 C42          6.2550     0.7370    -0.7440 c3         1 481      -0.086767
     10 C41          6.8980    -0.2640     1.4570 c3         1 481      -0.086767
     11 C36          5.1640    -2.6920    -0.5420 ca         1 481      -0.121000
     12 C35          3.9840    -3.4210    -0.5310 ca         1 481      -0.073500
     13 N31          0.4160    -3.0420    -0.0150 ns         1 481      -0.143000
     14 C13         -0.8940    -3.5340    -0.0460 ca         1 481      -0.023000
     15 C12         -1.9140    -2.5800    -0.0470 ca         1 481      -0.131000
     16 C14         -1.2280    -4.8870    -0.0800 ca         1 481      -0.119000
     17 C15         -2.5680    -5.2490    -0.1280 ca         1 481      -0.091000
     18 C16         -3.5770    -4.3040    -0.1400 ca         1 481      -0.127000
     19 C11         -3.2540    -2.9460    -0.0890 ca         1 481      -0.112500
     20 C3          -4.2950    -1.8970    -0.0800 cc         1 481       0.425500
     21 N2          -3.8630    -0.6260    -0.3230 nc         1 481      -0.765000
     22 C4          -5.5980    -2.1870     0.1790 cd         1 481      -0.202000
     23 N6          -6.4930    -1.1460     0.1650 na         1 481       0.167100
     24 C5          -6.0990     0.1390    -0.0830 cd         1 481      -0.180000
     25 N9          -7.1080     0.9810    -0.0380 nc         1 481      -0.280600
     26 C8          -8.1870     0.2140     0.2460 cc         1 481      -0.044400
     27 C7          -7.8380    -1.1080     0.3790 cd         1 481      -0.261100
     28 C1          -4.7080     0.3600    -0.3220 cd         1 481       0.681900
     29 N10         -4.3340     1.6500    -0.5310 nu         1 481      -0.924900
     30 C17         -3.0480     2.1610    -0.6660 ca         1 481       0.322000
     31 C20         -2.8330     3.4870    -0.2770 ca         1 481      -0.153500
     32 C21         -1.5780     4.0560    -0.3760 ca         1 481      -0.052000
     33 C22         -0.4960     3.3080    -0.8310 ca         1 481      -0.172600
     34 C19         -0.7230     2.0040    -1.2600 ca         1 481      -0.052000
     35 C18         -1.9810     1.4310    -1.1940 ca         1 481      -0.153500
     36 C23          0.8490     3.9440    -0.9520 c          1 481       0.624700
     37 O24          0.9590     5.0340    -1.5000 o          1 481      -0.595100
     38 N25          1.9050     3.2490    -0.4760 n          1 481      -0.412800
     39 C30          3.2670     3.6670    -0.7540 c6         1 481       0.096500
     40 C29          4.0290     3.9500     0.5280 c6         1 481       0.139800
     41 N28          3.9820     2.8060     1.4160 n3         1 481      -0.722600
     42 C44          4.7690     3.0180     2.6100 c3         1 481       0.150100
     43 C27          2.6110     2.4640     1.7260 c6         1 481       0.139800
     44 C26          1.8330     2.1420     0.4600 c6         1 481       0.096500
     45 H1           2.0150    -1.1730     1.0570 ha         1 481       0.120000
     46 H2           4.0720     0.0940     1.0140 ha         1 481       0.125500
     47 H3           7.4710    -1.5370    -1.7070 hc         1 481       0.038033
     48 H4           8.5590    -0.6600    -0.6410 hc         1 481       0.038033
     49 H5           7.9340    -2.2290    -0.1490 hc         1 481       0.038033
     50 H6           5.4870     1.3430    -0.2610 hc         1 481       0.038033
     51 H7           7.1720     1.3300    -0.7690 hc         1 481       0.038033
     52 H8           5.9480     0.5540    -1.7750 hc         1 481       0.038033
     53 H9           7.1050    -1.1760     2.0190 hc         1 481       0.038033
     54 H10          7.7980     0.3540     1.4780 hc         1 481       0.038033
     55 H11          6.1130     0.2840     1.9800 hc         1 481       0.038033
     56 H12          6.0370    -3.1450    -0.9890 ha         1 481       0.125500
     57 H13          3.9720    -4.4120    -0.9660 ha         1 481       0.120000
     58 H14          0.4830    -2.0370    -0.0610 hn         1 481       0.153000
     59 H15         -1.6630    -1.5270    -0.0070 ha         1 481       0.131000
     60 H16         -0.4710    -5.6520    -0.0800 ha         1 481       0.152000
     61 H17         -2.8210    -6.3000    -0.1690 ha         1 481       0.117000
     62 H18         -4.6050    -4.6330    -0.2050 ha         1 481       0.110000
     63 H19         -5.9910    -3.1630     0.4120 h4         1 481       0.157000
     64 H20         -9.1750     0.6360     0.3450 h4         1 481       0.232000
     65 H21         -8.4130    -1.9910     0.5990 h4         1 481       0.236000
     66 H22         -5.0660     2.3300    -0.3860 hn         1 481       0.525000
     67 H23         -3.6560     4.0720     0.1170 ha         1 481       0.133000
     68 H24         -1.4370     5.0830    -0.0650 ha         1 481       0.124000
     69 H25          0.0900     1.4170    -1.6690 ha         1 481       0.124000
     70 H26         -2.1260     0.4250    -1.5520 ha         1 481       0.133000
     71 H27          3.7670     2.8640    -1.3050 h1         1 481       0.061450
     72 H28          3.2590     4.5510    -1.3860 h1         1 481       0.061450
     73 H29          5.0710     4.1630     0.2750 h1         1 481       0.041950
     74 H30          3.6180     4.8560     1.0060 h1         1 481       0.041950
     75 H32          4.7370     2.1270     3.2390 h1         1 481       0.033700
     76 H33          5.8100     3.2010     2.3410 h1         1 481       0.033700
     77 H34          4.4180     3.8690     3.2130 h1         1 481       0.033700
     78 H35          2.5960     1.5830     2.3730 h1         1 481       0.041950
     79 H36          2.0940     3.2730     2.2710 h1         1 481       0.041950
     80 H37          0.8030     1.9290     0.7300 h1         1 481       0.061450
     81 H38          2.2480     1.2450    -0.0110 h1         1 481       0.061450
@<TRIPOS>BOND
     1     1     2 2   
     2     2     3 1   
     3     2    13 1   
     4     3     4 ar  
     5     3    12 ar  
     6     4     5 ar  
     7     4    45 1   
     8     5     6 ar  
     9     5    46 1   
    10     6     7 1   
    11     6    11 ar  
    12     7     8 1   
    13     7     9 1   
    14     7    10 1   
    15     8    47 1   
    16     8    48 1   
    17     8    49 1   
    18     9    50 1   
    19     9    51 1   
    20     9    52 1   
    21    10    53 1   
    22    10    54 1   
    23    10    55 1   
    24    11    12 ar  
    25    11    56 1   
    26    12    57 1   
    27    13    14 1   
    28    13    58 1   
    29    14    15 ar  
    30    14    16 ar  
    31    15    19 ar  
    32    15    59 1   
    33    16    17 ar  
    34    16    60 1   
    35    17    18 ar  
    36    17    61 1   
    37    18    19 ar  
    38    18    62 1   
    39    19    20 1   
    40    20    21 1   
    41    20    22 2   
    42    21    28 2   
    43    22    23 1   
    44    22    63 1   
    45    23    24 1   
    46    23    27 1   
    47    24    25 2   
    48    24    28 1   
    49    25    26 1   
    50    26    27 2   
    51    26    64 1   
    52    27    65 1   
    53    28    29 1   
    54    29    30 1   
    55    29    66 1   
    56    30    31 ar  
    57    30    35 ar  
    58    31    32 ar  
    59    31    67 1   
    60    32    33 ar  
    61    32    68 1   
    62    33    34 ar  
    63    33    36 1   
    64    34    35 ar  
    65    34    69 1   
    66    35    70 1   
    67    36    37 2   
    68    36    38 1   
    69    38    39 1   
    70    38    44 1   
    71    39    40 1   
    72    39    71 1   
    73    39    72 1   
    74    40    41 1   
    75    40    73 1   
    76    40    74 1   
    77    41    42 1   
    78    41    43 1   
    79    42    75 1   
    80    42    76 1   
    81    42    77 1   
    82    43    44 1   
    83    43    78 1   
    84    43    79 1   
    85    44    80 1   
    86    44    81 1   
@<TRIPOS>SUBSTRUCTURE
     1 481         1 TEMP              0 ****  ****    0 ROOT
