@<TRIPOS>MOLECULE
482
   30    30     1     0     0
SMALL
abcg2


@<TRIPOS>ATOM
      1 C15          6.1080     0.2330     0.5780 c3         1 482      -0.092100
      2 C14          4.7080     0.6290     0.1270 c3         1 482      -0.066400
      3 C13          3.7400    -0.5390     0.2190 c3         1 482      -0.178400
      4 C11          2.3260    -0.2340    -0.1930 c          1 482       0.574100
      5 O12          1.9690     0.8500    -0.5880 o          1 482      -0.482100
      6 C10          1.3540    -1.3900    -0.0570 c3         1 482      -0.275400
      7 C8           0.0300    -1.0940    -0.7200 c          1 482       0.629100
      8 O9          -0.0850    -1.0780    -1.9340 o          1 482      -0.578100
      9 N7          -0.9910    -0.8640     0.1260 ns         1 482      -0.485900
     10 C1          -2.3170    -0.5430    -0.2990 c5         1 482      -0.006300
     11 C5          -3.4370    -1.2700     0.4330 c5         1 482      -0.131400
     12 C4          -4.5850    -0.2830     0.2820 c5         1 482       0.157600
     13 C2          -2.6750     0.9200    -0.0680 c          1 482       0.629100
     14 O6          -1.9540     1.8730    -0.1440 o          1 482      -0.458000
     15 OAP         -3.9630     1.0160     0.2460 os         1 482      -0.426100
     16 H1           6.1100    -0.1010     1.6170 hc         1 482       0.033033
     17 H2           6.5040    -0.5820    -0.0300 hc         1 482       0.033033
     18 H3           6.7990     1.0720     0.4980 hc         1 482       0.033033
     19 H4           4.3460     1.4590     0.7380 hc         1 482       0.054700
     20 H5           4.7450     0.9960    -0.9010 hc         1 482       0.054700
     21 H6           4.0870    -1.3780    -0.3970 hc         1 482       0.058700
     22 H7           3.7100    -0.9400     1.2380 hc         1 482       0.058700
     23 H8           1.7890    -2.2820    -0.5140 hc         1 482       0.079200
     24 H9           1.2530    -1.6170     1.0090 hc         1 482       0.079200
     25 H10         -0.8140    -0.8750     1.1190 hn         1 482       0.316500
     26 H11         -2.3880    -0.7250    -1.3760 h1         1 482       0.116700
     27 H12         -3.6700    -2.2430     0.0060 hc         1 482       0.068200
     28 H13         -3.1790    -1.4060     1.4850 hc         1 482       0.068200
     29 H14         -5.1330    -0.4310    -0.6490 h1         1 482       0.066700
     30 H15         -5.2870    -0.2970     1.1130 h1         1 482       0.066700
@<TRIPOS>BOND
     1     1     2 1   
     2     1    16 1   
     3     1    17 1   
     4     1    18 1   
     5     2     3 1   
     6     2    19 1   
     7     2    20 1   
     8     3     4 1   
     9     3    21 1   
    10     3    22 1   
    11     4     5 2   
    12     4     6 1   
    13     6     7 1   
    14     6    23 1   
    15     6    24 1   
    16     7     8 2   
    17     7     9 1   
    18     9    10 1   
    19     9    25 1   
    20    10    11 1   
    21    10    13 1   
    22    10    26 1   
    23    11    12 1   
    24    11    27 1   
    25    11    28 1   
    26    12    15 1   
    27    12    29 1   
    28    12    30 1   
    29    13    14 2   
    30    13    15 1   
@<TRIPOS>SUBSTRUCTURE
     1 482         1 TEMP              0 ****  ****    0 ROOT
