@<TRIPOS>MOLECULE
482
   30    30     1     0     0
SMALL
No Charge or Current Charge


@<TRIPOS>ATOM
      1 C15          5.3280    -0.1920    -0.9000 c3         1 482      -0.092100
      2 C14          3.9190     0.0830    -0.3420 c3         1 482      -0.066400
      3 C13          3.6900    -0.5440     1.0550 c3         1 482      -0.178400
      4 C11          2.2910    -0.2200     1.6050 c          1 482       0.574100
      5 O12          2.0470     0.8640     2.1150 o          1 482      -0.482100
      6 C10          1.2280    -1.3020     1.5290 c3         1 482      -0.275400
      7 C8           0.3240    -0.9560     0.3700 c          1 482       0.629100
      8 O9           0.6090    -1.2470    -0.7810 o          1 482      -0.578100
      9 N7          -0.8350    -0.2890     0.7160 ns         1 482      -0.485900
     10 C1          -1.7880     0.0860    -0.3590 c5         1 482      -0.006300
     11 C5          -2.6670    -1.1690    -0.5920 c5         1 482      -0.131400
     12 C4          -3.9850    -0.4600    -0.9910 c5         1 482       0.157600
     13 C2          -2.7970     1.1320     0.1790 c          1 482       0.629100
     14 O6          -2.5780     2.0320     0.9770 o          1 482      -0.458000
     15 OAP         -4.0580     0.6850    -0.1090 os         1 482      -0.426100
     16 H1           6.0970     0.2190    -0.2350 hc         1 482       0.033033
     17 H2           5.5010    -1.2710    -1.0030 hc         1 482       0.033033
     18 H3           5.4460     0.2700    -1.8870 hc         1 482       0.033033
     19 H4           3.7650     1.1690    -0.2850 hc         1 482       0.054700
     20 H5           3.1760    -0.3060    -1.0480 hc         1 482       0.054700
     21 H6           3.8160    -1.6290     0.9580 hc         1 482       0.058700
     22 H7           4.4420    -0.1410     1.7440 hc         1 482       0.058700
     23 H8           1.6910    -2.2730     1.3230 hc         1 482       0.079200
     24 H9           0.6560    -1.2800     2.4630 hc         1 482       0.079200
     25 H10         -0.9720    -0.0700     1.6970 hn         1 482       0.316500
     26 H11         -1.3310     0.4780    -1.2790 h1         1 482       0.116700
     27 H12         -2.2800    -1.8310    -1.3760 hc         1 482       0.068200
     28 H13         -2.8140    -1.7660     0.3170 hc         1 482       0.068200
     29 H14         -3.9480    -0.1040    -2.0310 h1         1 482       0.066700
     30 H15         -4.8740    -1.0930    -0.8680 h1         1 482       0.066700
@<TRIPOS>BOND
     1     1     2 1   
     2     1    16 1   
     3     1    17 1   
     4     1    18 1   
     5     2     3 1   
     6     2    19 1   
     7     2    20 1   
     8     3     4 1   
     9     3    21 1   
    10     3    22 1   
    11     4     5 2   
    12     4     6 1   
    13     6     7 1   
    14     6    23 1   
    15     6    24 1   
    16     7     8 2   
    17     7     9 1   
    18     9    10 1   
    19     9    25 1   
    20    10    11 1   
    21    10    13 1   
    22    10    26 1   
    23    11    12 1   
    24    11    27 1   
    25    11    28 1   
    26    12    15 1   
    27    12    29 1   
    28    12    30 1   
    29    13    14 2   
    30    13    15 1   
@<TRIPOS>SUBSTRUCTURE
     1 482         1 TEMP              0 ****  ****    0 ROOT
