@<TRIPOS>MOLECULE
483
   35    36     1     0     0
SMALL
bcc


@<TRIPOS>ATOM
      1 C4           1.5600     0.3000     0.0950 c6         1 483       0.110700
      2 C5           2.6070     1.4010    -0.0240 c6         1 483      -0.087900
      3 C6           3.9550     0.9290     0.5110 c6         1 483      -0.069900
      4 N1          -3.3190     0.3690    -0.3150 na         1 483      -0.178900
      5 C8          -2.0930     1.0420    -0.6350 c3         1 483      -0.045700
      6 N2          -5.1190    -0.2040     0.8180 nc         1 483      -0.670000
      7 C9          -3.7770    -0.7870    -0.8790 cd         1 483      -0.259600
      8 C10         -4.8960    -1.1200    -0.1730 cc         1 483       0.302200
      9 C11         -4.1490     0.6660     0.7070 cd         1 483       0.404400
     10 O           -1.0550    -0.3860     0.9930 o          1 483      -0.570100
     11 N            0.2850     0.7650    -0.4250 ns         1 483      -0.574900
     12 C3           2.0260    -0.9740    -0.6090 c6         1 483      -0.087900
     13 C2           3.3780    -1.4320    -0.0780 c6         1 483      -0.069900
     14 C1           4.4410    -0.3410    -0.1860 c6         1 483      -0.064700
     15 C            5.7810    -0.8070     0.3660 c3         1 483      -0.086100
     16 H1           1.4140     0.0800     1.1560 h1         1 483       0.080700
     17 H2           2.7120     1.6910    -1.0760 hc         1 483       0.044700
     18 H3           2.2730     2.2900     0.5170 hc         1 483       0.044700
     19 H4           4.6950     1.7280     0.4000 hc         1 483       0.044700
     20 H5           3.8710     0.7370     1.5870 hc         1 483       0.044700
     21 H6          -1.9560     1.0560    -1.7160 h1         1 483       0.073700
     22 H7          -2.1630     2.0820    -0.3100 h1         1 483       0.073700
     23 H8          -3.2880    -1.2510    -1.7200 h4         1 483       0.171000
     24 H9          -5.5500    -1.9640    -0.3280 h4         1 483       0.037100
     25 H10         -4.0050     1.5380     1.3290 h5         1 483       0.052100
     26 H11          0.3060     1.3740    -1.2290 hn         1 483       0.308500
     27 H12          1.2770    -1.7590    -0.4800 hc         1 483       0.044700
     28 H13          2.0980    -0.7770    -1.6850 hc         1 483       0.044700
     29 H14          3.2790    -1.7310     0.9730 hc         1 483       0.044700
     30 H15          3.7040    -2.3260    -0.6170 hc         1 483       0.044700
     31 H16          4.5750    -0.1070    -1.2500 hc         1 483       0.043700
     32 H17          5.7000    -1.0720     1.4240 hc         1 483       0.035033
     33 H18          6.1420    -1.6880    -0.1690 hc         1 483       0.035033
     34 H19          6.5420    -0.0300     0.2770 hc         1 483       0.035033
     35 C7          -0.9020     0.3840     0.0600 c          1 483       0.644100
@<TRIPOS>BOND
     1     1     2 1   
     2     1    11 1   
     3     1    12 1   
     4     1    16 1   
     5     2     3 1   
     6     2    17 1   
     7     2    18 1   
     8     3    14 1   
     9     3    19 1   
    10     3    20 1   
    11     4     5 1   
    12     4     7 1   
    13     4     9 1   
    14     5    21 1   
    15     5    22 1   
    16     5    35 1   
    17     6     8 1   
    18     6     9 2   
    19     7     8 2   
    20     7    23 1   
    21     8    24 1   
    22     9    25 1   
    23    10    35 2   
    24    11    26 1   
    25    11    35 1   
    26    12    13 1   
    27    12    27 1   
    28    12    28 1   
    29    13    14 1   
    30    13    29 1   
    31    13    30 1   
    32    14    15 1   
    33    14    31 1   
    34    15    32 1   
    35    15    33 1   
    36    15    34 1   
@<TRIPOS>SUBSTRUCTURE
     1 483         1 TEMP              0 ****  ****    0 ROOT
