@<TRIPOS>MOLECULE
483
   35    36     1     0     0
SMALL
No Charge or Current Charge


@<TRIPOS>ATOM
      1 C4           1.6190     0.3350     0.1890 c6         1 483       0.110700
      2 C5           2.6710     1.4290    -0.1230 c6         1 483      -0.087900
      3 C6           4.0720     1.0350     0.4080 c6         1 483      -0.069900
      4 N1          -3.4220     0.2240    -0.3200 na         1 483      -0.157500
      5 C8          -2.1200     0.8260    -0.6780 c3         1 483      -0.016400
      6 N2          -5.1970    -0.3780     0.8870 nc         1 483      -0.670000
      7 C9          -4.2750    -0.4510    -1.1740 cd         1 483      -0.227000
      8 C10         -5.3480    -0.8050    -0.4030 cc         1 483       0.236900
      9 C11         -4.0250     0.2460     0.9320 cd         1 483       0.404400
     10 O           -1.0040    -0.5170     1.0270 o          1 483      -0.570100
     11 N            0.3110     0.7240    -0.3540 ns         1 483      -0.507900
     12 C3           2.0790    -1.0180    -0.4140 c6         1 483      -0.087900
     13 C2           3.4770    -1.4270     0.1130 c6         1 483      -0.069900
     14 C1           4.5340    -0.3280    -0.1740 c6         1 483      -0.064700
     15 C            5.9330    -0.7300     0.3620 c3         1 483      -0.086100
     16 H1           1.5290     0.2300     1.2810 h1         1 483       0.080700
     17 H2           2.7240     1.6010    -1.2080 hc         1 483       0.044700
     18 H3           2.3620     2.3810     0.3290 hc         1 483       0.044700
     19 H4           4.7960     1.8190     0.1480 hc         1 483       0.044700
     20 H5           4.0480     0.9850     1.5060 hc         1 483       0.044700
     21 H6          -1.9370     0.6720    -1.7480 h1         1 483       0.073700
     22 H7          -2.1630     1.9070    -0.4950 h1         1 483       0.073700
     23 H8          -4.0720    -0.6260    -2.2240 h4         1 483       0.153000
     24 H9          -6.2360    -1.3490    -0.6990 h4         1 483       0.037100
     25 H10         -3.5680     0.7210     1.7920 h5         1 483       0.052100
     26 H11          0.2950     1.3730    -1.1320 hn         1 483       0.308500
     27 H12          1.3520    -1.8040    -0.1680 hc         1 483       0.044700
     28 H13          2.1040    -0.9500    -1.5110 hc         1 483       0.044700
     29 H14          3.4200    -1.6180     1.1940 hc         1 483       0.044700
     30 H15          3.7830    -2.3740    -0.3540 hc         1 483       0.044700
     31 H16          4.6410    -0.2230    -1.2640 hc         1 483       0.043700
     32 H17          5.9220    -0.8580     1.4520 hc         1 483       0.035033
     33 H18          6.2700    -1.6740    -0.0810 hc         1 483       0.035033
     34 H19          6.6830     0.0330     0.1230 hc         1 483       0.035033
     35 C7          -0.9100     0.2660     0.0910 c          1 483       0.577100
@<TRIPOS>BOND
     1     1     2 1   
     2     1    11 1   
     3     1    12 1   
     4     1    16 1   
     5     2     3 1   
     6     2    17 1   
     7     2    18 1   
     8     3    14 1   
     9     3    19 1   
    10     3    20 1   
    11     4     5 1   
    12     4     7 1   
    13     4     9 1   
    14     5    21 1   
    15     5    22 1   
    16     5    35 1   
    17     6     8 1   
    18     6     9 2   
    19     7     8 2   
    20     7    23 1   
    21     8    24 1   
    22     9    25 1   
    23    10    35 2   
    24    11    26 1   
    25    11    35 1   
    26    12    13 1   
    27    12    27 1   
    28    12    28 1   
    29    13    14 1   
    30    13    29 1   
    31    13    30 1   
    32    14    15 1   
    33    14    31 1   
    34    15    32 1   
    35    15    33 1   
    36    15    34 1   
@<TRIPOS>SUBSTRUCTURE
     1 483         1 TEMP              0 ****  ****    0 ROOT
