@<TRIPOS>MOLECULE
484
   74    76     1     0     0
SMALL
bcc


@<TRIPOS>ATOM
      1 C1          -5.6510     2.0800    -0.7510 ca         1 484      -0.101000
      2 C2          -6.8460     1.4000    -0.5520 ca         1 484      -0.089300
      3 C3          -6.8300     0.1960     0.1670 ca         1 484      -0.086300
      4 C4          -5.6250    -0.2890     0.6610 ca         1 484      -0.100000
      5 C5          -4.4260     0.3920     0.4640 ca         1 484      -0.081300
      6 C6          -4.4560     1.5820    -0.2500 ca         1 484      -0.128000
      7 C48         -8.1200    -0.5480     0.3860 c3         1 484       0.185700
      8 O49         -7.9010    -1.7080     1.1430 oh         1 484      -0.593800
      9 C52         -8.1510     1.9320    -1.0790 c3         1 484       0.186700
     10 O53         -7.9420     3.1110    -1.8100 oh         1 484      -0.593800
     11 C10         -3.1290    -0.1740     0.9680 c3         1 484      -0.028100
     12 C27         -2.4320    -1.0400    -0.0920 c3         1 484      -0.028100
     13 C14         -1.1380    -1.6130     0.4110 ca         1 484      -0.085300
     14 C17          0.0620    -0.9270     0.2450 ca         1 484      -0.110000
     15 C18          1.2660    -1.4210     0.7360 cp         1 484      -0.039000
     16 C19          1.2880    -2.6410     1.4230 ca         1 484      -0.062300
     17 C20          0.0880    -3.3250     1.5910 ca         1 484      -0.130000
     18 C21         -1.1070    -2.8230     1.0950 ca         1 484      -0.120000
     19 C8           2.5710    -3.1980     1.9690 c3         1 484      -0.047800
     20 C7           2.5200    -0.6490     0.5350 cp         1 484      -0.034000
     21 C9           2.9520     0.2300     1.5250 ca         1 484      -0.118000
     22 C11          3.2940    -0.8010    -0.6160 ca         1 484      -0.061300
     23 C12          4.4700    -0.0610    -0.7420 ca         1 484      -0.122000
     24 C13          4.1200     0.9580     1.3820 ca         1 484      -0.127000
     25 C16          4.9020     0.8250     0.2350 ca         1 484      -0.106300
     26 C15          2.8840    -1.7160    -1.7380 c3         1 484      -0.035100
     27 C24          6.2050     1.6050     0.0850 c3         1 484       0.211100
     28 C25          5.9160     3.1110     0.2440 c3         1 484      -0.079900
     29 C26          7.2150     1.1190     1.1340 c3         1 484      -0.079900
     30 O2           6.8010     1.3640    -1.1730 oh         1 484      -0.591800
     31 C28          7.5230    -0.3700     1.0720 c3         1 484      -0.085600
     32 C29          7.1250     4.0220     0.0700 c3         1 484      -0.085600
     33 C22          2.0650    -0.9940    -2.8110 c3         1 484      -0.072400
     34 C23          1.6830    -1.9140    -3.9600 c3         1 484      -0.090100
     35 H1          -5.6430     3.0120    -1.2990 ha         1 484       0.149000
     36 H2          -5.6110    -1.2170     1.2190 ha         1 484       0.148000
     37 H3          -3.5370     2.1330    -0.4150 ha         1 484       0.130000
     38 H4          -8.8370     0.1220     0.8820 h1         1 484       0.022200
     39 H5          -8.5600    -0.7890    -0.5930 h1         1 484       0.022200
     40 H6          -8.7470    -2.1480     1.2630 ho         1 484       0.407000
     41 H7          -8.6300     1.1600    -1.7000 h1         1 484       0.021700
     42 H8          -8.8350     2.1030    -0.2350 h1         1 484       0.021700
     43 H9          -8.8000     3.4560    -2.0710 ho         1 484       0.407000
     44 H10         -2.4590     0.6370     1.2640 hc         1 484       0.050700
     45 H11         -3.3050    -0.7790     1.8610 hc         1 484       0.050700
     46 H12         -3.1040    -1.8480    -0.3910 hc         1 484       0.050700
     47 H13         -2.2520    -0.4350    -0.9850 hc         1 484       0.050700
     48 H14          0.0620     0.0190    -0.2860 ha         1 484       0.132000
     49 H15          0.0870    -4.2730     2.1160 ha         1 484       0.129000
     50 H16         -2.0240    -3.3820     1.2370 ha         1 484       0.130000
     51 H17          2.9530    -2.5890     2.7910 hc         1 484       0.043700
     52 H18          2.4300    -4.2100     2.3480 hc         1 484       0.043700
     53 H19          3.3560    -3.2280     1.2120 hc         1 484       0.043700
     54 H20          2.3610     0.3410     2.4270 ha         1 484       0.134000
     55 H21          5.0690    -0.2070    -1.6330 ha         1 484       0.137000
     56 H22          4.4200     1.6230     2.1830 ha         1 484       0.129000
     57 H23          3.7780    -2.1410    -2.2020 hc         1 484       0.050700
     58 H24          2.3030    -2.5580    -1.3530 hc         1 484       0.050700
     59 H25          5.1440     3.3880    -0.4820 hc         1 484       0.044450
     60 H26          5.4750     3.2930     1.2260 hc         1 484       0.044450
     61 H27          8.1430     1.6850     1.0140 hc         1 484       0.044450
     62 H28          6.8320     1.3730     2.1250 hc         1 484       0.044450
     63 H29          6.2440     1.7500    -1.8580 ho         1 484       0.403000
     64 H30          7.9220    -0.6600     0.1000 hc         1 484       0.036033
     65 H31          8.2680    -0.6340     1.8240 hc         1 484       0.036033
     66 H32          6.6350    -0.9740     1.2600 hc         1 484       0.036033
     67 H33          7.8590     3.8830     0.8630 hc         1 484       0.036033
     68 H34          7.6250     3.8570    -0.8840 hc         1 484       0.036033
     69 H35          6.8110     5.0660     0.1000 hc         1 484       0.036033
     70 H36          1.1630    -0.5770    -2.3550 hc         1 484       0.039700
     71 H37          2.6400    -0.1430    -3.1870 hc         1 484       0.039700
     72 H38          1.1040    -1.3850    -4.7180 hc         1 484       0.032033
     73 H39          2.5690    -2.3260    -4.4470 hc         1 484       0.032033
     74 H40          1.0800    -2.7530    -3.6100 hc         1 484       0.032033
@<TRIPOS>BOND
     1     1     2 ar  
     2     1     6 ar  
     3     1    35 1   
     4     2     3 ar  
     5     2     9 1   
     6     3     4 ar  
     7     3     7 1   
     8     4     5 ar  
     9     4    36 1   
    10     5     6 ar  
    11     5    11 1   
    12     6    37 1   
    13     7     8 1   
    14     7    38 1   
    15     7    39 1   
    16     8    40 1   
    17     9    10 1   
    18     9    41 1   
    19     9    42 1   
    20    10    43 1   
    21    11    12 1   
    22    11    44 1   
    23    11    45 1   
    24    12    13 1   
    25    12    46 1   
    26    12    47 1   
    27    13    14 ar  
    28    13    18 ar  
    29    14    15 ar  
    30    14    48 1   
    31    15    16 ar  
    32    15    20 1   
    33    16    17 ar  
    34    16    19 1   
    35    17    18 ar  
    36    17    49 1   
    37    18    50 1   
    38    19    51 1   
    39    19    52 1   
    40    19    53 1   
    41    20    21 ar  
    42    20    22 ar  
    43    21    24 ar  
    44    21    54 1   
    45    22    23 ar  
    46    22    26 1   
    47    23    25 ar  
    48    23    55 1   
    49    24    25 ar  
    50    24    56 1   
    51    25    27 1   
    52    26    33 1   
    53    26    57 1   
    54    26    58 1   
    55    27    28 1   
    56    27    29 1   
    57    27    30 1   
    58    28    32 1   
    59    28    59 1   
    60    28    60 1   
    61    29    31 1   
    62    29    61 1   
    63    29    62 1   
    64    30    63 1   
    65    31    64 1   
    66    31    65 1   
    67    31    66 1   
    68    32    67 1   
    69    32    68 1   
    70    32    69 1   
    71    33    34 1   
    72    33    70 1   
    73    33    71 1   
    74    34    72 1   
    75    34    73 1   
    76    34    74 1   
@<TRIPOS>SUBSTRUCTURE
     1 484         1 TEMP              0 ****  ****    0 ROOT
