@<TRIPOS>MOLECULE
484
   74    76     1     0     0
SMALL
No Charge or Current Charge


@<TRIPOS>ATOM
      1 C1          -5.6310     2.1140    -0.7550 ca         1 484      -0.083000
      2 C2          -6.8540     1.4480    -0.5190 ca         1 484      -0.089300
      3 C3          -6.8380     0.2070     0.1740 ca         1 484      -0.086300
      4 C4          -5.6100    -0.3170     0.6310 ca         1 484      -0.082000
      5 C5          -4.4000     0.3620     0.4030 ca         1 484      -0.081300
      6 C6          -4.4170     1.5780    -0.2980 ca         1 484      -0.110000
      7 C48         -8.1090    -0.6050     0.4320 c3         1 484       0.208900
      8 O49         -8.7960    -0.1110     1.5860 oh         1 484      -0.656000
      9 C52         -8.1530     2.0740    -1.0460 c3         1 484       0.209900
     10 O53         -8.1960     3.4830    -0.7850 oh         1 484      -0.656000
     11 C10         -3.0840    -0.2230     0.8970 c3         1 484      -0.028100
     12 C27         -2.4440    -1.1700    -0.1380 c3         1 484      -0.028100
     13 C14         -1.1260    -1.7540     0.3540 ca         1 484      -0.085300
     14 C17          0.0660    -1.0220     0.2190 ca         1 484      -0.092000
     15 C18          1.3020    -1.5430     0.6650 cp         1 484      -0.039000
     16 C19          1.3270    -2.8270     1.2710 ca         1 484      -0.062300
     17 C20          0.1300    -3.5570     1.4090 ca         1 484      -0.112000
     18 C21         -1.0880    -3.0250     0.9530 ca         1 484      -0.102000
     19 C8           2.6320    -3.4330     1.7760 c3         1 484      -0.047800
     20 C7           2.5470    -0.7420     0.4940 cp         1 484      -0.034000
     21 C9           2.9300     0.1680     1.5010 ca         1 484      -0.100000
     22 C11          3.3690    -0.8680    -0.6570 ca         1 484      -0.061300
     23 C12          4.5370    -0.0860    -0.7740 ca         1 484      -0.104000
     24 C13          4.0950     0.9390     1.3790 ca         1 484      -0.109000
     25 C16          4.9170     0.8330     0.2360 ca         1 484      -0.106300
     26 C15          3.0220    -1.8320    -1.7910 c3         1 484      -0.035100
     27 C24          6.2040     1.6910     0.1360 c3         1 484       0.234300
     28 C25          5.8280     3.2070     0.2100 c3         1 484      -0.079900
     29 C26          7.2100     1.2920     1.2580 c3         1 484      -0.079900
     30 O2           6.8550     1.4800    -1.1230 oh         1 484      -0.654000
     31 C28          7.5590    -0.2150     1.3210 c3         1 484      -0.085600
     32 C29          6.9890     4.2170     0.0220 c3         1 484      -0.085600
     33 C22          2.1570    -1.1640    -2.8810 c3         1 484      -0.072400
     34 C23          1.7740    -2.1240    -4.0220 c3         1 484      -0.090100
     35 H1          -5.6210     3.0560    -1.2980 ha         1 484       0.131000
     36 H2          -5.5960    -1.2650     1.1640 ha         1 484       0.130000
     37 H3          -3.4880     2.1110    -0.4900 ha         1 484       0.112000
     38 H4          -8.7600    -0.5690    -0.4510 h1         1 484       0.022200
     39 H5          -7.8390    -1.6590     0.5810 h1         1 484       0.022200
     40 H6          -9.5820    -0.6870     1.7150 ho         1 484       0.446000
     41 H7          -8.2150     1.8900    -2.1270 h1         1 484       0.021700
     42 H8          -9.0280     1.5990    -0.5860 h1         1 484       0.021700
     43 H9          -9.0540     3.8080    -1.1370 ho         1 484       0.446000
     44 H10         -2.3770     0.5820     1.1320 hc         1 484       0.050700
     45 H11         -3.2420    -0.7720     1.8340 hc         1 484       0.050700
     46 H12         -3.1520    -1.9750    -0.3740 hc         1 484       0.050700
     47 H13         -2.2840    -0.6210    -1.0740 hc         1 484       0.050700
     48 H14          0.0430    -0.0370    -0.2410 ha         1 484       0.114000
     49 H15          0.1400    -4.5410     1.8710 ha         1 484       0.111000
     50 H16         -2.0020    -3.6020     1.0690 ha         1 484       0.112000
     51 H17          3.0980    -2.7870     2.5300 hc         1 484       0.043700
     52 H18          2.4780    -4.4160     2.2350 hc         1 484       0.043700
     53 H19          3.3490    -3.5610     0.9570 hc         1 484       0.043700
     54 H20          2.3120     0.2700     2.3910 ha         1 484       0.116000
     55 H21          5.1470    -0.2130    -1.6630 ha         1 484       0.119000
     56 H22          4.3570     1.6180     2.1860 ha         1 484       0.111000
     57 H23          3.9420    -2.2150    -2.2510 hc         1 484       0.050700
     58 H24          2.4980    -2.7140    -1.4050 hc         1 484       0.050700
     59 H25          5.0650     3.4170    -0.5500 hc         1 484       0.044450
     60 H26          5.3580     3.4200     1.1760 hc         1 484       0.044450
     61 H27          8.1450     1.8480     1.1260 hc         1 484       0.044450
     62 H28          6.8080     1.5950     2.2320 hc         1 484       0.044450
     63 H29          6.2380     1.8090    -1.8090 ho         1 484       0.442000
     64 H30          7.9840    -0.5600     0.3710 hc         1 484       0.036033
     65 H31          8.2970    -0.4000     2.1100 hc         1 484       0.036033
     66 H32          6.6700    -0.8180     1.5430 hc         1 484       0.036033
     67 H33          7.7330     4.1200     0.8210 hc         1 484       0.036033
     68 H34          7.4910     4.0760    -0.9420 hc         1 484       0.036033
     69 H35          6.6020     5.2420     0.0510 hc         1 484       0.036033
     70 H36          1.2410    -0.7680    -2.4270 hc         1 484       0.039700
     71 H37          2.7010    -0.3080    -3.3000 hc         1 484       0.039700
     72 H38          1.1630    -1.6040    -4.7700 hc         1 484       0.032033
     73 H39          2.6700    -2.5130    -4.5210 hc         1 484       0.032033
     74 H40          1.1950    -2.9720    -3.6370 hc         1 484       0.032033
@<TRIPOS>BOND
     1     1     2 ar  
     2     1     6 ar  
     3     1    35 1   
     4     2     3 ar  
     5     2     9 1   
     6     3     4 ar  
     7     3     7 1   
     8     4     5 ar  
     9     4    36 1   
    10     5     6 ar  
    11     5    11 1   
    12     6    37 1   
    13     7     8 1   
    14     7    38 1   
    15     7    39 1   
    16     8    40 1   
    17     9    10 1   
    18     9    41 1   
    19     9    42 1   
    20    10    43 1   
    21    11    12 1   
    22    11    44 1   
    23    11    45 1   
    24    12    13 1   
    25    12    46 1   
    26    12    47 1   
    27    13    14 ar  
    28    13    18 ar  
    29    14    15 ar  
    30    14    48 1   
    31    15    16 ar  
    32    15    20 1   
    33    16    17 ar  
    34    16    19 1   
    35    17    18 ar  
    36    17    49 1   
    37    18    50 1   
    38    19    51 1   
    39    19    52 1   
    40    19    53 1   
    41    20    21 ar  
    42    20    22 ar  
    43    21    24 ar  
    44    21    54 1   
    45    22    23 ar  
    46    22    26 1   
    47    23    25 ar  
    48    23    55 1   
    49    24    25 ar  
    50    24    56 1   
    51    25    27 1   
    52    26    33 1   
    53    26    57 1   
    54    26    58 1   
    55    27    28 1   
    56    27    29 1   
    57    27    30 1   
    58    28    32 1   
    59    28    59 1   
    60    28    60 1   
    61    29    31 1   
    62    29    61 1   
    63    29    62 1   
    64    30    63 1   
    65    31    64 1   
    66    31    65 1   
    67    31    66 1   
    68    32    67 1   
    69    32    68 1   
    70    32    69 1   
    71    33    34 1   
    72    33    70 1   
    73    33    71 1   
    74    34    72 1   
    75    34    73 1   
    76    34    74 1   
@<TRIPOS>SUBSTRUCTURE
     1 484         1 TEMP              0 ****  ****    0 ROOT
