@<TRIPOS>MOLECULE
485
   50    51     1     0     0
SMALL
abcg2


@<TRIPOS>ATOM
      1 O1          -2.0400     1.1520     7.2060 oh         1 485      -0.544100
      2 C2          -1.2600     0.8980     6.1340 ca         1 485       0.119100
      3 C3          -0.1530     0.0580     6.1900 ca         1 485      -0.176500
      4 C4           0.6110    -0.1580     5.0500 ca         1 485      -0.075500
      5 C5           0.3010     0.4500     3.8370 ca         1 485      -0.095300
      6 C6          -0.8140     1.2870     3.8030 ca         1 485      -0.075500
      7 C7          -1.5880     1.5150     4.9280 ca         1 485      -0.176500
      8 C8           1.0910     0.1740     2.5920 c3         1 485      -0.078100
      9 C9           0.4660    -0.9740     1.7640 c3         1 485       0.079500
     10 N10          0.4150    -2.2590     2.4290 n8         1 485      -0.988200
     11 C11          1.2710    -1.1090     0.4800 c          1 485       0.613100
     12 O12          2.3160    -1.7480     0.4550 o          1 485      -0.630100
     13 N13          0.7660    -0.4630    -0.5770 ns         1 485      -0.445900
     14 C14          1.5330    -0.1900    -1.7670 c3         1 485      -0.037300
     15 C15          2.4410     1.0650    -1.6170 c          1 485       0.723000
     16 O16          2.4410     1.6470    -0.5200 o          1 485      -0.723500
     17 O17          3.1080     1.3510    -2.6300 o          1 485      -0.723500
     18 C18          0.6020    -0.0400    -2.9620 c6         1 485       0.178300
     19 C19         -0.2080    -1.3030    -3.2590 c6         1 485       0.142300
     20 C20         -1.2260    -1.0090    -4.3550 c6         1 485       0.133300
     21 C21         -2.0920     0.1910    -3.9820 c6         1 485       0.111300
     22 C22         -1.1650     1.3740    -3.6930 c6         1 485       0.142300
     23 O23         -0.2460     1.0480    -2.6720 os         1 485      -0.429000
     24 O24          0.7040    -2.2980    -3.6620 oh         1 485      -0.706000
     25 O25         -1.9700    -2.1840    -4.5720 oh         1 485      -0.653000
     26 O26         -2.8890    -0.1610    -2.8780 oh         1 485      -0.694000
     27 C27         -1.9040     2.6260    -3.2660 c3         1 485      -0.087100
     28 H1          -1.7220     0.6650     7.9740 ho         1 485       0.456000
     29 H3           0.1190    -0.4290     7.1200 ha         1 485       0.111500
     30 H4           1.4730    -0.8120     5.1170 ha         1 485       0.117000
     31 H6          -1.0860     1.7780     2.8750 ha         1 485       0.117000
     32 H7          -2.4470     2.1740     4.8780 ha         1 485       0.111500
     33 H81          2.1180    -0.1010     2.8470 hc         1 485       0.084200
     34 H82          1.1500     1.0700     1.9700 hc         1 485       0.084200
     35 H9          -0.5610    -0.6850     1.5180 h1         1 485       0.057700
     36 H101         1.3560    -2.5630     2.6520 hn         1 485       0.394500
     37 H102        -0.0670    -2.1610     3.3150 hn         1 485       0.394500
     38 H13         -0.0350     0.1290    -0.4190 hn         1 485       0.304500
     39 H14          2.1860    -1.0460    -1.9510 h1         1 485       0.092700
     40 H18          1.2230     0.1820    -3.8420 h1         1 485       0.073700
     41 H19         -0.7440    -1.6080    -2.3500 h1         1 485       0.072700
     42 H20         -0.6700    -0.7270    -5.2620 h1         1 485       0.037700
     43 H21         -2.7120     0.4570    -4.8520 h1         1 485       0.010700
     44 H2          -0.6220     1.5910    -4.6280 h1         1 485       0.034700
     45 H24          0.2050    -3.1020    -3.8360 ho         1 485       0.502000
     46 H25         -2.4430    -2.1010    -5.4060 ho         1 485       0.430000
     47 H26         -3.5290     0.5400    -2.7220 ho         1 485       0.492000
     48 H271        -1.2180     3.4670    -3.1720 hc         1 485       0.039033
     49 H272        -2.6570     2.8940    -4.0080 hc         1 485       0.039033
     50 H273        -2.4020     2.4950    -2.3040 hc         1 485       0.039033
@<TRIPOS>BOND
     1     1     2 1   
     2     1    28 1   
     3     2     3 ar  
     4     2     7 ar  
     5     3     4 ar  
     6     3    29 1   
     7     4     5 ar  
     8     4    30 1   
     9     5     6 ar  
    10     5     8 1   
    11     6     7 ar  
    12     6    31 1   
    13     7    32 1   
    14     8     9 1   
    15     8    33 1   
    16     8    34 1   
    17     9    10 1   
    18     9    11 1   
    19     9    35 1   
    20    10    36 1   
    21    10    37 1   
    22    11    12 2   
    23    11    13 1   
    24    13    14 1   
    25    13    38 1   
    26    14    15 1   
    27    14    18 1   
    28    14    39 1   
    29    15    16 1   
    30    15    17 1   
    31    18    19 1   
    32    18    23 1   
    33    18    40 1   
    34    19    20 1   
    35    19    24 1   
    36    19    41 1   
    37    20    21 1   
    38    20    25 1   
    39    20    42 1   
    40    21    22 1   
    41    21    26 1   
    42    21    43 1   
    43    22    23 1   
    44    22    27 1   
    45    22    44 1   
    46    24    45 1   
    47    25    46 1   
    48    26    47 1   
    49    27    48 1   
    50    27    49 1   
    51    27    50 1   
@<TRIPOS>SUBSTRUCTURE
     1 485         1 TEMP              0 ****  ****    0 ROOT
