@<TRIPOS>MOLECULE
485
   50    51     1     0     0
SMALL
No Charge or Current Charge


@<TRIPOS>ATOM
      1 O1          -1.4430     1.1510     7.7580 oh         1 485      -0.544100
      2 C2          -0.8650     0.7700     6.5850 ca         1 485       0.119100
      3 C3          -0.6520    -0.5900     6.3110 ca         1 485      -0.176500
      4 C4          -0.0550    -0.9780     5.0980 ca         1 485      -0.075500
      5 C5           0.3310    -0.0060     4.1530 ca         1 485      -0.095300
      6 C6           0.1160     1.3570     4.4370 ca         1 485      -0.075500
      7 C7          -0.4810     1.7420     5.6500 ca         1 485      -0.176500
      8 C8           0.9830    -0.4220     2.8350 c3         1 485      -0.078100
      9 C9           0.0860    -0.1790     1.5940 c3         1 485       0.079500
     10 N10         -1.2370    -0.8680     1.7710 n8         1 485      -0.988200
     11 C11          0.8570    -0.5210     0.2650 c          1 485       0.613100
     12 O12          1.2640    -1.6480     0.0030 o          1 485      -0.630100
     13 N13          1.0430     0.5440    -0.5920 ns         1 485      -0.445900
     14 C14          1.7050     0.4890    -1.9280 c3         1 485      -0.037300
     15 C15          2.5510     1.7660    -2.1850 c          1 485       0.723000
     16 O16          2.2600     2.8020    -1.5990 o          1 485      -0.723500
     17 O17          3.5460     1.6560    -2.8870 o          1 485      -0.723500
     18 C18          0.7150     0.2390    -3.1080 c6         1 485       0.178300
     19 C19          0.2760    -1.2560    -3.2560 c6         1 485       0.142300
     20 C20         -0.8350    -1.3860    -4.3490 c6         1 485       0.133300
     21 C21         -2.0030    -0.3890    -4.0800 c6         1 485       0.111300
     22 C22         -1.4020     1.0470    -3.9750 c6         1 485       0.142300
     23 O23         -0.4440     1.0900    -2.8970 os         1 485      -0.429000
     24 O24          1.3860    -2.1130    -3.5970 oh         1 485      -0.706000
     25 O25         -1.3400    -2.7310    -4.3920 oh         1 485      -0.653000
     26 O26         -2.6940    -0.7610    -2.8700 oh         1 485      -0.694000
     27 C27         -2.4610     2.1430    -3.6930 c3         1 485      -0.087100
     28 H1          -1.6410     0.3460     8.2820 ho         1 485       0.456000
     29 H3          -0.9460    -1.3510     7.0310 ha         1 485       0.111500
     30 H4           0.1070    -2.0350     4.8950 ha         1 485       0.117000
     31 H6           0.4140     2.1190     3.7190 ha         1 485       0.117000
     32 H7          -0.6440     2.7960     5.8640 ha         1 485       0.111500
     33 H81          1.2730    -1.4800     2.8670 hc         1 485       0.084200
     34 H82          1.9190     0.1360     2.7040 hc         1 485       0.084200
     35 H9          -0.1270     0.8980     1.5600 h1         1 485       0.057700
     36 H101        -1.0870    -1.8840     1.7640 hn         1 485       0.394500
     37 H102        -1.5740    -0.6820     2.7230 hn         1 485       0.394500
     38 H13          0.6750     1.4400    -0.2930 hn         1 485       0.304500
     39 H14          2.4270    -0.3360    -1.9200 h1         1 485       0.092700
     40 H18          1.2110     0.5450    -4.0420 h1         1 485       0.073700
     41 H19         -0.1550    -1.5750    -2.2960 h1         1 485       0.072700
     42 H20         -0.3900    -1.1300    -5.3220 h1         1 485       0.037700
     43 H21         -2.6980    -0.4220    -4.9310 h1         1 485       0.010700
     44 H2          -0.8910     1.3010    -4.9160 h1         1 485       0.034700
     45 H24          0.9730    -2.9450    -3.9290 ho         1 485       0.502000
     46 H25         -2.1350    -2.7120    -3.8100 ho         1 485       0.430000
     47 H26         -2.3050    -0.2060    -2.1560 ho         1 485       0.492000
     48 H271        -1.9970     3.1360    -3.6750 hc         1 485       0.039033
     49 H272        -3.2310     2.1520    -4.4720 hc         1 485       0.039033
     50 H273        -2.9600     1.9900    -2.7290 hc         1 485       0.039033
@<TRIPOS>BOND
     1     1     2 1   
     2     1    28 1   
     3     2     3 ar  
     4     2     7 ar  
     5     3     4 ar  
     6     3    29 1   
     7     4     5 ar  
     8     4    30 1   
     9     5     6 ar  
    10     5     8 1   
    11     6     7 ar  
    12     6    31 1   
    13     7    32 1   
    14     8     9 1   
    15     8    33 1   
    16     8    34 1   
    17     9    10 1   
    18     9    11 1   
    19     9    35 1   
    20    10    36 1   
    21    10    37 1   
    22    11    12 2   
    23    11    13 1   
    24    13    14 1   
    25    13    38 1   
    26    14    15 1   
    27    14    18 1   
    28    14    39 1   
    29    15    16 1   
    30    15    17 1   
    31    18    19 1   
    32    18    23 1   
    33    18    40 1   
    34    19    20 1   
    35    19    24 1   
    36    19    41 1   
    37    20    21 1   
    38    20    25 1   
    39    20    42 1   
    40    21    22 1   
    41    21    26 1   
    42    21    43 1   
    43    22    23 1   
    44    22    27 1   
    45    22    44 1   
    46    24    45 1   
    47    25    46 1   
    48    26    47 1   
    49    27    48 1   
    50    27    49 1   
    51    27    50 1   
@<TRIPOS>SUBSTRUCTURE
     1 485         1 TEMP              0 ****  ****    0 ROOT
