@<TRIPOS>MOLECULE
486
   67    71     1     0     0
SMALL
abcg2


@<TRIPOS>ATOM
      1 O30          5.4180    -3.1940    -1.2460 o          1 486      -0.533100
      2 C2           4.4350    -2.5250    -0.9730 c          1 486       0.576300
      3 C1           3.5050    -1.9940    -2.0310 c6         1 486      -0.180400
      4 C3           4.1260    -2.1370     0.3970 ce         1 486      -0.317200
      5 C4           3.0400    -1.4060     0.7310 cf         1 486       0.002800
      6 C7           2.8200    -0.9660     2.1400 c6         1 486      -0.051200
      7 C5           2.0090    -1.0520    -0.2460 cf         1 486      -0.111200
      8 C6           2.0750    -1.8490    -1.5230 c6         1 486      -0.027200
      9 C10          1.0340    -0.1680     0.0580 c2         1 486      -0.058400
     10 C14         -0.1290     0.0750    -0.8850 c6         1 486       0.029800
     11 C18         -1.2820    -0.8870    -0.6190 ca         1 486      -0.122300
     12 C22         -2.4230    -0.8390    -1.4160 ca         1 486      -0.067000
     13 C23         -3.4900    -1.7020    -1.2400 ca         1 486      -0.185500
     14 C24         -3.4750    -2.6790    -0.2280 ca         1 486       0.328000
     15 N27         -4.5460    -3.5150    -0.0160 nh         1 486      -0.821400
     16 C29         -5.6120    -3.5510    -0.9880 c3         1 486       0.213100
     17 C28         -4.3970    -4.6410     0.8750 c3         1 486       0.213100
     18 C25         -2.3120    -2.7530     0.5540 ca         1 486      -0.185500
     19 C26         -1.2540    -1.8780     0.3550 ca         1 486      -0.067000
     20 C13         -0.5430     1.5620    -0.9600 c6         1 486      -0.052400
     21 C12         -0.6820     2.2220     0.4010 c5         1 486      -0.019000
     22 C19         -1.8890     1.6580     1.1610 c3         1 486      -0.076100
     23 C17         -0.7770     3.7720     0.4080 c5         1 486       0.273100
     24 C31          0.1780     4.3830    -0.5320 c1         1 486      -0.177100
     25 C30          0.9380     4.9310    -1.2880 c1         1 486      -0.122100
     26 C32          1.8620     5.5820    -2.2050 c3         1 486      -0.008000
     27 O3          -2.0820     4.1780     0.0710 oh         1 486      -0.639000
     28 C16         -0.3630     4.1250     1.8680 c5         1 486      -0.102400
     29 C15          0.5170     2.9560     2.3630 c5         1 486      -0.064400
     30 C11          0.6360     2.0330     1.1480 c5         1 486      -0.067700
     31 C9           1.0060     0.5750     1.3840 c6         1 486      -0.014500
     32 C8           2.3200     0.4670     2.1450 c6         1 486      -0.071400
     33 HC1A         3.8890    -1.0130    -2.3350 hc         1 486       0.069200
     34 HC12         3.5420    -2.6360    -2.9110 hc         1 486       0.069200
     35 HC3          4.8360    -2.4240     1.1650 ha         1 486       0.194000
     36 HC71         3.7320    -1.0740     2.7270 hc         1 486       0.055700
     37 HC72         2.0640    -1.6150     2.5990 hc         1 486       0.055700
     38 HC61         1.4670    -1.4170    -2.3150 hc         1 486       0.055700
     39 HC62         1.6640    -2.8460    -1.3310 hc         1 486       0.055700
     40 HC14         0.2120    -0.1530    -1.8970 hc         1 486       0.055700
     41 HC22        -2.4930    -0.1120    -2.2170 ha         1 486       0.108000
     42 HC23        -4.3360    -1.6070    -1.9070 ha         1 486       0.111500
     43 H291        -6.0940    -2.5770    -1.0910 h1         1 486       0.034700
     44 H292        -5.2770    -3.8640    -1.9840 h1         1 486       0.034700
     45 H293        -6.3760    -4.2510    -0.6570 h1         1 486       0.034700
     46 H281        -4.1260    -4.3200     1.8820 h1         1 486       0.034700
     47 H282        -5.3470    -5.1650     0.9480 h1         1 486       0.034700
     48 H283        -3.6410    -5.3600     0.5380 h1         1 486       0.034700
     49 HC25        -2.2140    -3.4960     1.3330 ha         1 486       0.111500
     50 HC26        -0.3860    -1.9890     0.9950 ha         1 486       0.108000
     51 H131         0.2370     2.0790    -1.5240 hc         1 486       0.053200
     52 H132        -1.4590     1.6550    -1.5490 hc         1 486       0.053200
     53 H191        -1.7530     0.6090     1.4150 hc         1 486       0.041033
     54 H192        -2.0950     2.1870     2.0920 hc         1 486       0.041033
     55 H193        -2.7880     1.7100     0.5470 hc         1 486       0.041033
     56 H321         2.8920     5.3010    -1.9850 hc         1 486       0.052367
     57 H322         1.6550     5.3040    -3.2390 hc         1 486       0.052367
     58 H323         1.7900     6.6670    -2.1300 hc         1 486       0.052367
     59 HO3         -2.1360     5.1360     0.1520 ho         1 486       0.447000
     60 H161         0.1550     5.0820     1.9100 hc         1 486       0.052700
     61 H162        -1.2640     4.2250     2.4750 hc         1 486       0.052700
     62 H151         1.4920     3.2950     2.7160 hc         1 486       0.045200
     63 H152         0.0400     2.4390     3.1990 hc         1 486       0.045200
     64 HC11         1.4250     2.4460     0.5030 hc         1 486       0.058700
     65 HC9          0.2290     0.1100     2.0080 hc         1 486       0.064700
     66 HC81         3.0700     1.1180     1.6850 hc         1 486       0.048700
     67 HC82         2.1830     0.8130     3.1710 hc         1 486       0.048700
@<TRIPOS>BOND
     1     1     2 2   
     2     2     3 1   
     3     2     4 1   
     4     3     8 1   
     5     3    33 1   
     6     3    34 1   
     7     4     5 2   
     8     4    35 1   
     9     5     6 1   
    10     5     7 1   
    11     6    32 1   
    12     6    36 1   
    13     6    37 1   
    14     7     8 1   
    15     7     9 2   
    16     8    38 1   
    17     8    39 1   
    18     9    10 1   
    19     9    31 1   
    20    10    11 1   
    21    10    20 1   
    22    10    40 1   
    23    11    12 ar  
    24    11    19 ar  
    25    12    13 ar  
    26    12    41 1   
    27    13    14 ar  
    28    13    42 1   
    29    14    15 1   
    30    14    18 ar  
    31    15    16 1   
    32    15    17 1   
    33    16    43 1   
    34    16    44 1   
    35    16    45 1   
    36    17    46 1   
    37    17    47 1   
    38    17    48 1   
    39    18    19 ar  
    40    18    49 1   
    41    19    50 1   
    42    20    21 1   
    43    20    51 1   
    44    20    52 1   
    45    21    22 1   
    46    21    23 1   
    47    21    30 1   
    48    22    53 1   
    49    22    54 1   
    50    22    55 1   
    51    23    24 1   
    52    23    27 1   
    53    23    28 1   
    54    24    25 3   
    55    25    26 1   
    56    26    56 1   
    57    26    57 1   
    58    26    58 1   
    59    27    59 1   
    60    28    29 1   
    61    28    60 1   
    62    28    61 1   
    63    29    30 1   
    64    29    62 1   
    65    29    63 1   
    66    30    31 1   
    67    30    64 1   
    68    31    32 1   
    69    31    65 1   
    70    32    66 1   
    71    32    67 1   
@<TRIPOS>SUBSTRUCTURE
     1 486         1 TEMP              0 ****  ****    0 ROOT
