@<TRIPOS>MOLECULE
486
   67    71     1     0     0
SMALL
No Charge or Current Charge


@<TRIPOS>ATOM
      1 O30          5.1590    -3.7330    -1.0980 o          1 486      -0.533100
      2 C2           4.3000    -2.8950    -0.8620 c          1 486       0.576300
      3 C1           3.2940    -2.4380    -1.9170 c6         1 486      -0.180400
      4 C3           4.1530    -2.2600     0.4660 ce         1 486      -0.317200
      5 C4           3.1110    -1.4490     0.7990 cf         1 486       0.002800
      6 C7           3.0790    -0.7720     2.1710 c6         1 486      -0.051200
      7 C5           1.9950    -1.1580    -0.1180 cf         1 486      -0.111200
      8 C6           1.9040    -2.1550    -1.3080 c6         1 486      -0.027200
      9 C10          1.1000    -0.1390     0.1010 c2         1 486      -0.058400
     10 C14         -0.1180     0.1270    -0.8320 c6         1 486       0.029800
     11 C18         -1.2700    -0.8890    -0.6680 ca         1 486      -0.122300
     12 C22         -2.2860    -0.9460    -1.6430 ca         1 486      -0.067000
     13 C23         -3.3400    -1.8680    -1.5280 ca         1 486      -0.185500
     14 C24         -3.4020    -2.7630    -0.4430 ca         1 486       0.328000
     15 N27         -4.4680    -3.6940    -0.3300 nh         1 486      -0.821400
     16 C29         -5.8030    -3.4170    -0.9120 c3         1 486       0.213100
     17 C28         -4.2970    -4.9840     0.3790 c3         1 486       0.213100
     18 C25         -2.3790    -2.7160     0.5230 ca         1 486      -0.185500
     19 C26         -1.3230    -1.7960     0.4130 ca         1 486      -0.067000
     20 C13         -0.5990     1.6160    -0.8760 c6         1 486      -0.052400
     21 C12         -0.6780     2.3070     0.5170 c5         1 486      -0.019000
     22 C19         -1.8540     1.6470     1.3260 c3         1 486      -0.076100
     23 C17         -0.8000     3.8930     0.5040 c5         1 486       0.273100
     24 C31          0.0320     4.5970    -0.5030 c1         1 486      -0.177100
     25 C30          0.7520     5.1500    -1.3030 c1         1 486      -0.122100
     26 C32          1.6470     5.7880    -2.2740 c3         1 486      -0.008000
     27 O3          -2.1260     4.3360     0.2500 oh         1 486      -0.639000
     28 C16         -0.3460     4.2630     1.9640 c5         1 486      -0.102400
     29 C15          0.5690     3.0810     2.4430 c5         1 486      -0.064400
     30 C11          0.7200     2.1790     1.1820 c5         1 486      -0.067700
     31 C9           1.1790     0.7110     1.3960 c6         1 486      -0.014500
     32 C8           2.5930     0.6770     2.0260 c6         1 486      -0.071400
     33 HC1A         3.6640    -1.4750    -2.2920 hc         1 486       0.069200
     34 HC12         3.2690    -3.1450    -2.7570 hc         1 486       0.069200
     35 HC3          4.9390    -2.4750     1.1870 ha         1 486       0.194000
     36 HC71         4.0770    -0.7820     2.6300 hc         1 486       0.055700
     37 HC72         2.4150    -1.3340     2.8430 hc         1 486       0.055700
     38 HC61         1.2390    -1.8210    -2.1110 hc         1 486       0.055700
     39 HC62         1.4700    -3.0950    -0.9410 hc         1 486       0.055700
     40 HC14         0.2410    -0.0170    -1.8570 hc         1 486       0.055700
     41 HC22        -2.2580    -0.2770    -2.5000 ha         1 486       0.108000
     42 HC23        -4.1010    -1.8890    -2.3010 ha         1 486       0.111500
     43 H291        -6.0480    -2.3500    -0.8240 h1         1 486       0.034700
     44 H292        -5.8260    -3.7000    -1.9730 h1         1 486       0.034700
     45 H293        -6.5840    -3.9800    -0.3840 h1         1 486       0.034700
     46 H281        -4.4450    -4.8530     1.4590 h1         1 486       0.034700
     47 H282        -5.0190    -5.7280     0.0160 h1         1 486       0.034700
     48 H283        -3.2910    -5.3890     0.2060 h1         1 486       0.034700
     49 HC25        -2.3980    -3.3880     1.3750 ha         1 486       0.111500
     50 HC26        -0.5550    -1.7930     1.1820 ha         1 486       0.108000
     51 H131         0.1180     2.1540    -1.5100 hc         1 486       0.053200
     52 H132        -1.5600     1.7070    -1.3970 hc         1 486       0.053200
     53 H191        -1.6630     0.6010     1.5740 hc         1 486       0.041033
     54 H192        -2.0560     2.1550     2.2750 hc         1 486       0.041033
     55 H193        -2.7880     1.6740     0.7520 hc         1 486       0.041033
     56 H321         2.4630     5.1070    -2.5430 hc         1 486       0.052367
     57 H322         1.0970     6.0520    -3.1840 hc         1 486       0.052367
     58 H323         2.0800     6.7010    -1.8490 hc         1 486       0.052367
     59 HO3         -2.0350     5.2620    -0.0570 ho         1 486       0.447000
     60 H161         0.1820     5.2230     2.0030 hc         1 486       0.052700
     61 H162        -1.2060     4.3700     2.6360 hc         1 486       0.052700
     62 H151         1.5400     3.4410     2.8030 hc         1 486       0.045200
     63 H152         0.1080     2.5380     3.2760 hc         1 486       0.045200
     64 HC11         1.4960     2.5970     0.5290 hc         1 486       0.058700
     65 HC9          0.5010     0.2490     2.1250 hc         1 486       0.064700
     66 HC81         3.3020     1.2380     1.4010 hc         1 486       0.048700
     67 HC82         2.5870     1.1600     3.0130 hc         1 486       0.048700
@<TRIPOS>BOND
     1     1     2 2   
     2     2     3 1   
     3     2     4 1   
     4     3     8 1   
     5     3    33 1   
     6     3    34 1   
     7     4     5 2   
     8     4    35 1   
     9     5     6 1   
    10     5     7 1   
    11     6    32 1   
    12     6    36 1   
    13     6    37 1   
    14     7     8 1   
    15     7     9 2   
    16     8    38 1   
    17     8    39 1   
    18     9    10 1   
    19     9    31 1   
    20    10    11 1   
    21    10    20 1   
    22    10    40 1   
    23    11    12 ar  
    24    11    19 ar  
    25    12    13 ar  
    26    12    41 1   
    27    13    14 ar  
    28    13    42 1   
    29    14    15 1   
    30    14    18 ar  
    31    15    16 1   
    32    15    17 1   
    33    16    43 1   
    34    16    44 1   
    35    16    45 1   
    36    17    46 1   
    37    17    47 1   
    38    17    48 1   
    39    18    19 ar  
    40    18    49 1   
    41    19    50 1   
    42    20    21 1   
    43    20    51 1   
    44    20    52 1   
    45    21    22 1   
    46    21    23 1   
    47    21    30 1   
    48    22    53 1   
    49    22    54 1   
    50    22    55 1   
    51    23    24 1   
    52    23    27 1   
    53    23    28 1   
    54    24    25 3   
    55    25    26 1   
    56    26    56 1   
    57    26    57 1   
    58    26    58 1   
    59    27    59 1   
    60    28    29 1   
    61    28    60 1   
    62    28    61 1   
    63    29    30 1   
    64    29    62 1   
    65    29    63 1   
    66    30    31 1   
    67    30    64 1   
    68    31    32 1   
    69    31    65 1   
    70    32    66 1   
    71    32    67 1   
@<TRIPOS>SUBSTRUCTURE
     1 486         1 TEMP              0 ****  ****    0 ROOT
