@<TRIPOS>MOLECULE
487
   43    44     1     0     0
SMALL
No Charge or Current Charge


@<TRIPOS>ATOM
      1 C4          -2.7070     0.1140     0.0500 ca         1 487       0.437900
      2 C5          -3.5890     2.0220     1.4590 c3         1 487       0.215100
      3 C6          -5.0410    -0.0160     1.0190 c3         1 487       0.215100
      4 N1          -2.0800    -2.7990    -1.7550 nv         1 487      -1.066900
      5 C7           3.2100     1.0260    -0.7070 c3         1 487       0.179300
      6 C8           4.5310     0.3620    -0.2470 c3         1 487      -0.072900
      7 N2          -2.9240    -1.1020    -0.4880 nb         1 487      -0.358000
      8 C9           4.7450     0.3790     1.2830 c3         1 487      -0.069900
      9 C10          4.0340    -0.7530     2.0530 c3         1 487      -0.069900
     10 C11          2.6870    -1.2260     1.4630 c3         1 487      -0.072900
     11 C12          1.7410    -0.1090     0.9740 c3         1 487       0.179300
     12 N3          -3.7480     0.6900     0.8190 nh         1 487      -0.768300
     13 N4          -1.5670     0.8220    -0.0910 nb         1 487      -0.327000
     14 C3          -1.9020    -1.5820    -1.1990 ca         1 487       0.424900
     15 N           -0.7250    -0.9850    -1.4120 nb         1 487      -0.287000
     16 C2          -0.6020     0.2300    -0.8300 ca         1 487       0.214300
     17 C1           0.7250     1.0010    -1.0130 c3         1 487       0.151200
     18 C            0.8530     1.4010    -2.5070 c3         1 487      -0.090100
     19 N5           1.9340     0.2890    -0.4550 n3         1 487      -0.714600
     20 H1          -3.4130     2.7950     0.6990 h1         1 487       0.045033
     21 H2          -4.4850     2.3070     2.0260 h1         1 487       0.045033
     22 H3          -2.7410     2.0140     2.1570 h1         1 487       0.045033
     23 H4          -4.8820    -0.9720     1.5350 h1         1 487       0.045033
     24 H5          -5.7360     0.5800     1.6270 h1         1 487       0.045033
     25 H6          -5.5260    -0.2110     0.0540 h1         1 487       0.045033
     26 H7          -2.8520    -3.3670    -1.4160 hn         1 487       0.503000
     27 H8          -1.2600    -3.3000    -2.0880 hn         1 487       0.503000
     28 H9           3.1520     2.0270    -0.2570 h1         1 487       0.027450
     29 H10          3.3300     1.1760    -1.7860 h1         1 487       0.027450
     30 H11          4.6030    -0.6590    -0.6390 hc         1 487       0.045950
     31 H12          5.3540     0.9240    -0.7050 hc         1 487       0.045950
     32 H13          5.8200     0.3150     1.4940 hc         1 487       0.033450
     33 H14          4.4170     1.3480     1.6780 hc         1 487       0.033450
     34 H15          4.7040    -1.6210     2.1080 hc         1 487       0.033450
     35 H16          3.8780    -0.4230     3.0870 hc         1 487       0.033450
     36 H17          2.8680    -1.9280     0.6400 hc         1 487       0.045950
     37 H18          2.1690    -1.8030     2.2380 hc         1 487       0.045950
     38 H19          0.7290    -0.5080     1.1160 h1         1 487       0.027450
     39 H20          1.8220     0.7640     1.6360 h1         1 487       0.027450
     40 H21          0.6160     1.9460    -0.4610 h1         1 487       0.044700
     41 H22         -0.1020     1.7900    -2.8790 hc         1 487       0.045367
     42 H23          1.5980     2.1910    -2.6500 hc         1 487       0.045367
     43 H24          1.1320     0.5370    -3.1210 hc         1 487       0.045367
@<TRIPOS>BOND
     1     1     7 ar  
     2     1    12 1   
     3     1    13 ar  
     4     2    12 1   
     5     2    20 1   
     6     2    21 1   
     7     2    22 1   
     8     3    12 1   
     9     3    23 1   
    10     3    24 1   
    11     3    25 1   
    12     4    14 1   
    13     4    26 1   
    14     4    27 1   
    15     5     6 1   
    16     5    19 1   
    17     5    28 1   
    18     5    29 1   
    19     6     8 1   
    20     6    30 1   
    21     6    31 1   
    22     7    14 ar  
    23     8     9 1   
    24     8    32 1   
    25     8    33 1   
    26     9    10 1   
    27     9    34 1   
    28     9    35 1   
    29    10    11 1   
    30    10    36 1   
    31    10    37 1   
    32    11    19 1   
    33    11    38 1   
    34    11    39 1   
    35    13    16 ar  
    36    14    15 ar  
    37    15    16 ar  
    38    16    17 1   
    39    17    18 1   
    40    17    19 1   
    41    17    40 1   
    42    18    41 1   
    43    18    42 1   
    44    18    43 1   
@<TRIPOS>SUBSTRUCTURE
     1 487         1 TEMP              0 ****  ****    0 ROOT
