@<TRIPOS>MOLECULE
487
   43    44     1     0     0
SMALL
abcg2


@<TRIPOS>ATOM
      1 C4          -2.6950     0.1640     0.0910 ca         1 487       0.437900
      2 C5          -3.7920     2.0750     1.1470 c3         1 487       0.215100
      3 C6          -5.0050    -0.0300     0.8300 c3         1 487       0.215100
      4 N1          -1.6820    -2.8780    -1.2430 nv         1 487      -1.066900
      5 C7           3.1160     1.1450    -0.6390 c3         1 487       0.179300
      6 C8           4.4060     0.3600    -0.4120 c3         1 487      -0.072900
      7 N2          -2.7680    -1.1120    -0.2840 nb         1 487      -0.358000
      8 C9           4.7680     0.1240     1.0520 c3         1 487      -0.069900
      9 C10          4.1030    -1.0990     1.6800 c3         1 487      -0.069900
     10 C11          2.6350    -1.2990     1.2930 c3         1 487      -0.072900
     11 C12          1.8280    -0.0270     1.0420 c3         1 487       0.179300
     12 N3          -3.8030     0.7380     0.5960 nh         1 487      -0.768300
     13 N4          -1.5840     0.9150    -0.0030 nb         1 487      -0.327000
     14 C3          -1.6560    -1.6080    -0.8250 ca         1 487       0.424900
     15 N           -0.5110    -0.9310    -0.9940 nb         1 487      -0.287000
     16 C2          -0.5430     0.3110    -0.5490 ca         1 487       0.214300
     17 C1           0.7010     1.1570    -0.7280 c3         1 487       0.151200
     18 C            0.7130     1.5980    -2.1940 c3         1 487      -0.090100
     19 N5           1.8930     0.4160    -0.3470 n3         1 487      -0.714600
     20 H1          -2.8910     2.5980     0.8480 h1         1 487       0.045033
     21 H2          -4.6580     2.6280     0.7840 h1         1 487       0.045033
     22 H3          -3.8380     2.0530     2.2390 h1         1 487       0.045033
     23 H4          -5.0180    -0.4680     1.8320 h1         1 487       0.045033
     24 H5          -5.8690     0.6290     0.7390 h1         1 487       0.045033
     25 H6          -5.1030    -0.8310     0.1040 h1         1 487       0.045033
     26 H7          -2.4830    -3.4540    -1.0520 hn         1 487       0.503000
     27 H8          -0.8310    -3.3220    -1.5400 hn         1 487       0.503000
     28 H9           3.1730     2.0820    -0.0550 h1         1 487       0.027450
     29 H10          3.1030     1.4300    -1.6900 h1         1 487       0.027450
     30 H11          4.3630    -0.5850    -0.9630 hc         1 487       0.045950
     31 H12          5.2060     0.9390    -0.8820 hc         1 487       0.045950
     32 H13          5.8510     0.0220     1.1550 hc         1 487       0.033450
     33 H14          4.5050     1.0200     1.6230 hc         1 487       0.033450
     34 H15          4.6620    -1.9970     1.4040 hc         1 487       0.033450
     35 H16          4.1910    -1.0200     2.7670 hc         1 487       0.033450
     36 H17          2.5550    -1.9020     0.3860 hc         1 487       0.045950
     37 H18          2.1450    -1.8790     2.0800 hc         1 487       0.045950
     38 H19          0.7900    -0.2490     1.2880 h1         1 487       0.027450
     39 H20          2.1250     0.7770     1.7370 h1         1 487       0.027450
     40 H21          0.5610     2.0580    -0.1070 h1         1 487       0.044700
     41 H22         -0.2700     1.9780    -2.4740 hc         1 487       0.045367
     42 H23          1.4250     2.4000    -2.3790 hc         1 487       0.045367
     43 H24          0.9530     0.7570    -2.8450 hc         1 487       0.045367
@<TRIPOS>BOND
     1     1     7 ar  
     2     1    12 1   
     3     1    13 ar  
     4     2    12 1   
     5     2    20 1   
     6     2    21 1   
     7     2    22 1   
     8     3    12 1   
     9     3    23 1   
    10     3    24 1   
    11     3    25 1   
    12     4    14 1   
    13     4    26 1   
    14     4    27 1   
    15     5     6 1   
    16     5    19 1   
    17     5    28 1   
    18     5    29 1   
    19     6     8 1   
    20     6    30 1   
    21     6    31 1   
    22     7    14 ar  
    23     8     9 1   
    24     8    32 1   
    25     8    33 1   
    26     9    10 1   
    27     9    34 1   
    28     9    35 1   
    29    10    11 1   
    30    10    36 1   
    31    10    37 1   
    32    11    19 1   
    33    11    38 1   
    34    11    39 1   
    35    13    16 ar  
    36    14    15 ar  
    37    15    16 ar  
    38    16    17 1   
    39    17    18 1   
    40    17    19 1   
    41    17    40 1   
    42    18    41 1   
    43    18    42 1   
    44    18    43 1   
@<TRIPOS>SUBSTRUCTURE
     1 487         1 TEMP              0 ****  ****    0 ROOT
