@<TRIPOS>MOLECULE
488
   36    38     1     0     0
SMALL
abcg2


@<TRIPOS>ATOM
      1 C1           2.9530     1.4860     0.2700 ca         1 488       0.226100
      2 N1           0.8700    -0.3390     0.8960 n2         1 488      -0.621900
      3 O1           1.9100     2.0230     0.8970 oh         1 488      -0.537100
      4 S1           1.7760    -2.3840    -0.4270 ss         1 488      -0.382200
      5 C2           4.0330     2.3130    -0.0490 ca         1 488      -0.180000
      6 N2          -1.7870     0.4990     0.1190 n3         1 488      -0.634600
      7 S2          -2.8090    -1.9640     0.0730 ss         1 488      -0.693000
      8 C3           5.1390     1.8010    -0.6980 ca         1 488      -0.053000
      9 C4           5.2040     0.4530    -1.0470 ca         1 488      -0.184000
     10 C5           4.1400    -0.3710    -0.7400 ca         1 488      -0.033000
     11 C6           3.0040     0.1210    -0.0890 ca         1 488      -0.258900
     12 C12          1.8660    -0.7390     0.2060 ce         1 488       0.549800
     13 C13          0.3170    -2.6790     0.6140 c5         1 488       0.034600
     14 C14         -0.2290    -1.2810     0.9530 c5         1 488       0.138500
     15 C15         -1.3000    -0.8330    -0.0370 c5         1 488       0.368500
     16 C16         -3.9040    -0.5810    -0.3800 c5         1 488       0.116600
     17 C17         -2.9540     0.5780    -0.7460 c5         1 488       0.015500
     18 C19         -3.6520     1.9540    -0.8200 c          1 488       0.732000
     19 O20         -4.8720     1.9200    -1.0650 o          1 488      -0.709000
     20 O21         -2.9380     2.9630    -0.6880 o          1 488      -0.709000
     21 HO1          1.2480     1.3010     1.0670 ho         1 488       0.534000
     22 H2           3.9890     3.3600     0.2230 ha         1 488       0.128000
     23 H3           5.9650     2.4600    -0.9340 ha         1 488       0.104000
     24 H4           6.0740     0.0550    -1.5490 ha         1 488       0.108000
     25 H5           4.1930    -1.4200    -1.0030 ha         1 488       0.116000
     26 H13         -0.3910    -3.3010     0.0690 h1         1 488       0.086700
     27 H13A         0.6270    -3.2100     1.5130 h1         1 488       0.086700
     28 H14         -0.6450    -1.2970     1.9610 h1         1 488       0.099700
     29 H15         -0.9110    -0.9460    -1.0530 h2         1 488       0.084700
     30 H16         -4.5320    -0.8620    -1.2230 h1         1 488       0.072700
     31 H16A        -4.5520    -0.3340     0.4620 h1         1 488       0.072700
     32 H17         -2.5950     0.3770    -1.7650 h1         1 488       0.054700
     33 H18         -1.1400     0.9340     2.0670 h1         1 488       0.040033
     34 H18A        -2.5040     1.8720     1.5080 h1         1 488       0.040033
     35 H18B        -2.7410     0.1900     2.0180 h1         1 488       0.040033
     36 C18         -2.0650     0.8790     1.4960 c3         1 488       0.144100
@<TRIPOS>BOND
     1     1     3 1   
     2     1     5 ar  
     3     1    11 ar  
     4     2    12 2   
     5     2    14 1   
     6     3    21 1   
     7     4    12 1   
     8     4    13 1   
     9     5     8 ar  
    10     5    22 1   
    11     6    15 1   
    12     6    17 1   
    13     6    36 1   
    14     7    15 1   
    15     7    16 1   
    16     8     9 ar  
    17     8    23 1   
    18     9    10 ar  
    19     9    24 1   
    20    10    11 ar  
    21    10    25 1   
    22    11    12 1   
    23    13    14 1   
    24    13    26 1   
    25    13    27 1   
    26    14    15 1   
    27    14    28 1   
    28    15    29 1   
    29    16    17 1   
    30    16    30 1   
    31    16    31 1   
    32    17    18 1   
    33    17    32 1   
    34    18    19 1   
    35    18    20 1   
    36    33    36 1   
    37    34    36 1   
    38    35    36 1   
@<TRIPOS>SUBSTRUCTURE
     1 488         1 TEMP              0 ****  ****    0 ROOT
