@<TRIPOS>MOLECULE
488
   36    38     1     0     0
SMALL
No Charge or Current Charge


@<TRIPOS>ATOM
      1 C1           3.3940     1.3910     0.6330 ca         1 488       0.226100
      2 N1           0.8690    -0.0750     0.9090 n2         1 488      -0.621900
      3 O1           2.5610     1.8650     1.5960 oh         1 488      -0.537100
      4 S1           1.5350    -2.0870    -0.7010 ss         1 488      -0.382200
      5 C2           4.6160     2.0510     0.4370 ca         1 488      -0.180000
      6 N2          -1.9850     0.4960     0.0760 n3         1 488      -0.634600
      7 S2          -2.7940    -2.0320     0.2110 ss         1 488      -0.693000
      8 C3           5.5140     1.6130    -0.5450 ca         1 488      -0.053000
      9 C4           5.1800     0.5070    -1.3380 ca         1 488      -0.184000
     10 C5           3.9590    -0.1610    -1.1490 ca         1 488      -0.033000
     11 C6           3.0430     0.2630    -0.1530 ca         1 488      -0.258900
     12 C12          1.7390    -0.4670     0.0260 ce         1 488       0.549800
     13 C13          0.4350    -2.4650     0.7270 c5         1 488       0.034600
     14 C14         -0.2290    -1.0960     1.0430 c5         1 488       0.138500
     15 C15         -1.3650    -0.8610    -0.0490 c5         1 488       0.368500
     16 C16         -4.0030    -0.7550    -0.4290 c5         1 488       0.116600
     17 C17         -3.1270     0.4440    -0.9150 c5         1 488       0.015500
     18 C19         -4.0080     1.7440    -1.0890 c          1 488       0.732000
     19 O20         -5.0320     1.8910    -0.4320 o          1 488      -0.709000
     20 O21         -3.6680     2.5700    -1.9270 o          1 488      -0.709000
     21 HO1          1.7570     1.2820     1.5590 ho         1 488       0.534000
     22 H2           4.8680     2.9120     1.0520 ha         1 488       0.128000
     23 H3           6.4600     2.1290    -0.6940 ha         1 488       0.104000
     24 H4           5.8690     0.1650    -2.1070 ha         1 488       0.108000
     25 H5           3.7370    -1.0080    -1.7930 ha         1 488       0.116000
     26 H13         -0.2800    -3.2620     0.4860 h1         1 488       0.086700
     27 H13A         1.0470    -2.7990     1.5740 h1         1 488       0.086700
     28 H14         -0.6530    -1.0950     2.0560 h1         1 488       0.099700
     29 H15         -0.9660    -1.0000    -1.0640 h2         1 488       0.084700
     30 H16         -4.6200    -1.1640    -1.2410 h1         1 488       0.072700
     31 H16A        -4.6750    -0.4670     0.3910 h1         1 488       0.072700
     32 H17         -2.7330     0.2150    -1.9150 h1         1 488       0.054700
     33 H18         -1.4510     1.0850     2.0680 h1         1 488       0.040033
     34 H18A        -2.8400     1.9420     1.3990 h1         1 488       0.040033
     35 H18B        -3.0220     0.2640     1.9510 h1         1 488       0.040033
     36 C18         -2.3460     0.9640     1.4440 c3         1 488       0.144100
@<TRIPOS>BOND
     1     1     3 1   
     2     1     5 ar  
     3     1    11 ar  
     4     2    12 2   
     5     2    14 1   
     6     3    21 1   
     7     4    12 1   
     8     4    13 1   
     9     5     8 ar  
    10     5    22 1   
    11     6    15 1   
    12     6    17 1   
    13     6    36 1   
    14     7    15 1   
    15     7    16 1   
    16     8     9 ar  
    17     8    23 1   
    18     9    10 ar  
    19     9    24 1   
    20    10    11 ar  
    21    10    25 1   
    22    11    12 1   
    23    13    14 1   
    24    13    26 1   
    25    13    27 1   
    26    14    15 1   
    27    14    28 1   
    28    15    29 1   
    29    16    17 1   
    30    16    30 1   
    31    16    31 1   
    32    17    18 1   
    33    17    32 1   
    34    18    19 1   
    35    18    20 1   
    36    33    36 1   
    37    34    36 1   
    38    35    36 1   
@<TRIPOS>SUBSTRUCTURE
     1 488         1 TEMP              0 ****  ****    0 ROOT
