@<TRIPOS>MOLECULE
489
   21    21     1     0     0
SMALL
No Charge or Current Charge


@<TRIPOS>ATOM
      1 C4           1.6870     0.9870     0.6990 ca         1 489      -0.150500
      2 C5           2.5360     0.0420     0.1050 ca         1 489       0.174000
      3 C6           2.0020    -1.0110    -0.6510 ca         1 489      -0.150500
      4 C7           0.6090    -1.1230    -0.8120 ca         1 489      -0.073500
      5 F            3.8730     0.1500     0.2580 f          1 489      -0.179000
      6 C3           0.2940     0.8780     0.5400 ca         1 489      -0.073500
      7 C2          -0.2570    -0.1830    -0.2140 ca         1 489      -0.129300
      8 C1          -1.7690    -0.3230    -0.4040 c3         1 489       0.214600
      9 O           -2.2230     0.6740    -1.3360 oh         1 489      -0.644000
     10 C           -2.5720    -0.2180     0.9330 c3         1 489       0.118800
     11 N           -4.0310    -0.4540     0.7690 n8         1 489      -0.993200
     12 H1           2.1080     1.8030     1.2800 ha         1 489       0.133000
     13 H2           2.6660    -1.7380    -1.1110 ha         1 489       0.133000
     14 H3           0.2050    -1.9430    -1.4020 ha         1 489       0.115000
     15 H4          -0.3500     1.6220     1.0040 ha         1 489       0.115000
     16 H5          -1.9690    -1.3240    -0.8130 h1         1 489       0.093700
     17 H6          -1.8120     1.5190    -1.0590 ho         1 489       0.433000
     18 H7          -2.1790    -0.9510     1.6510 h1         1 489       0.034200
     19 H8          -2.4350     0.7830     1.3640 h1         1 489       0.034200
     20 H9          -4.5170    -0.1880     1.6350 hn         1 489       0.398000
     21 H10         -4.3880     0.2130     0.0730 hn         1 489       0.398000
@<TRIPOS>BOND
     1     1     2 ar  
     2     1     6 ar  
     3     1    12 1   
     4     2     3 ar  
     5     2     5 1   
     6     3     4 ar  
     7     3    13 1   
     8     4     7 ar  
     9     4    14 1   
    10     6     7 ar  
    11     6    15 1   
    12     7     8 1   
    13     8     9 1   
    14     8    10 1   
    15     8    16 1   
    16     9    17 1   
    17    10    11 1   
    18    10    18 1   
    19    10    19 1   
    20    11    20 1   
    21    11    21 1   
@<TRIPOS>SUBSTRUCTURE
     1 489         1 TEMP              0 ****  ****    0 ROOT
