@<TRIPOS>MOLECULE
489
   21    21     1     0     0
SMALL
bcc


@<TRIPOS>ATOM
      1 C4           1.7410     1.0950     0.4600 ca         1 489      -0.168500
      2 C5           2.4790    -0.0300     0.1460 ca         1 489       0.138900
      3 C6           1.8940    -1.1700    -0.3670 ca         1 489      -0.168500
      4 C7           0.5210    -1.1710    -0.5720 ca         1 489      -0.091500
      5 F            3.8090    -0.0110     0.3420 f          1 489      -0.143900
      6 C3           0.3700     1.0710     0.2470 ca         1 489      -0.091500
      7 C2          -0.2590    -0.0590    -0.2700 ca         1 489      -0.129300
      8 C1          -1.7560    -0.1020    -0.4810 c3         1 489       0.191400
      9 O           -2.2430     1.0430    -1.1510 oh         1 489      -0.581800
     10 C           -2.4860    -0.3410     0.8370 c3         1 489       0.118800
     11 N           -3.9030    -0.5570     0.6120 n8         1 489      -0.882800
     12 H1           2.2250     1.9760     0.8610 ha         1 489       0.151000
     13 H2           2.4940    -2.0370    -0.6120 ha         1 489       0.151000
     14 H3           0.0530    -2.0580    -0.9820 ha         1 489       0.133000
     15 H4          -0.2000     1.9570     0.4980 ha         1 489       0.133000
     16 H5          -1.9840    -0.9440    -1.1410 h1         1 489       0.093700
     17 H6          -2.2630     1.7860    -0.5380 ho         1 489       0.394000
     18 H7          -2.0660    -1.2360     1.3000 h1         1 489       0.034200
     19 H8          -2.2610     0.4930     1.5220 h1         1 489       0.034200
     20 H9          -4.3500    -0.7940     1.4890 hn         1 489       0.342800
     21 H10         -4.3380     0.3050     0.3080 hn         1 489       0.342800
@<TRIPOS>BOND
     1     1     2 ar  
     2     1     6 ar  
     3     1    12 1   
     4     2     3 ar  
     5     2     5 1   
     6     3     4 ar  
     7     3    13 1   
     8     4     7 ar  
     9     4    14 1   
    10     6     7 ar  
    11     6    15 1   
    12     7     8 1   
    13     8     9 1   
    14     8    10 1   
    15     8    16 1   
    16     9    17 1   
    17    10    11 1   
    18    10    18 1   
    19    10    19 1   
    20    11    20 1   
    21    11    21 1   
@<TRIPOS>SUBSTRUCTURE
     1 489         1 TEMP              0 ****  ****    0 ROOT
