@<TRIPOS>MOLECULE
48B
   49    52     1     0     0
SMALL
bcc


@<TRIPOS>ATOM
      1 F23          3.0710    -4.4950     0.0360 f          1 48B      -0.138900
      2 C17          3.3930    -3.1890     0.0550 ca         1 48B      -0.233700
      3 C18          4.6810    -2.7650    -0.0430 ca         1 48B       0.476200
      4 N19          5.0060    -1.4680    -0.0270 nb         1 48B      -0.777000
      5 C20          3.9970    -0.6200     0.0890 ca         1 48B       0.948900
      6 N24          4.2270     0.7200     0.1200 nu         1 48B      -0.730300
      7 C30          5.4100     1.4560     0.0370 ca         1 48B       0.141600
      8 C29          5.3010     2.8390     0.2030 ca         1 48B      -0.129000
      9 C28          6.4070     3.6670     0.1220 ca         1 48B      -0.165500
     10 C27          7.6670     3.1310    -0.1270 ca         1 48B       0.112100
     11 O31          8.7830     3.8880    -0.2210 oh         1 48B      -0.494100
     12 C26          7.7850     1.7570    -0.2900 ca         1 48B      -0.165500
     13 C25          6.6770     0.9250    -0.2100 ca         1 48B      -0.129000
     14 N21          2.7000    -0.9450     0.1880 nb         1 48B      -0.841000
     15 C22          2.3720    -2.2210     0.1720 ca         1 48B       0.741200
     16 N16          1.0870    -2.6320     0.2630 nu         1 48B      -0.731300
     17 C11         -0.1020    -1.9050     0.3290 ca         1 48B       0.143600
     18 C10         -1.2850    -2.6460     0.3160 ca         1 48B      -0.138500
     19 C12         -0.1980    -0.5160     0.4120 ca         1 48B      -0.138500
     20 C13         -1.4430     0.0870     0.4620 ca         1 48B      -0.137500
     21 C14         -2.6220    -0.6530     0.4380 ca         1 48B       0.047600
     22 C15         -2.5280    -2.0420     0.3700 ca         1 48B      -0.137500
     23 N9          -3.8280     0.0590     0.4980 ns         1 48B      -0.465100
     24 C7          -5.0830    -0.3850     0.2650 c          1 48B       0.690700
     25 O8          -5.3750    -1.5260    -0.0380 o          1 48B      -0.557100
     26 C4          -6.1300     0.6720     0.4380 ca         1 48B      -0.152600
     27 C5          -7.0500     0.9630    -0.5660 ca         1 48B       0.068400
     28 CL1         -6.9330     0.1970    -2.1140 cl         1 48B      -0.082400
     29 C6          -8.0510     1.9000    -0.3690 ca         1 48B      -0.129000
     30 C3          -6.2390     1.3440     1.6540 ca         1 48B      -0.100000
     31 C2          -7.2460     2.2730     1.8670 ca         1 48B      -0.133000
     32 C1          -8.1520     2.5490     0.8530 ca         1 48B      -0.101000
     33 H18          5.4890    -3.4820    -0.1380 h4         1 48B       0.038100
     34 HN24         3.3880     1.2670     0.2380 hn         1 48B       0.451800
     35 H29          4.3320     3.2820     0.4020 ha         1 48B       0.149500
     36 H28          6.2770     4.7350     0.2540 ha         1 48B       0.139500
     37 HO31         8.5660     4.8190    -0.1040 ho         1 48B       0.423000
     38 H26          8.7580     1.3230    -0.4860 ha         1 48B       0.139500
     39 H25          6.8070    -0.1360    -0.3400 ha         1 48B       0.149500
     40 HN16         0.9560    -3.6310     0.2400 hn         1 48B       0.456800
     41 H10         -1.2400    -3.7280     0.2610 ha         1 48B       0.149000
     42 H12          0.6850     0.1000     0.4340 ha         1 48B       0.149000
     43 H13         -1.4890     1.1690     0.5200 ha         1 48B       0.147500
     44 H15         -3.4060    -2.6660     0.3580 ha         1 48B       0.147500
     45 HN9         -3.7260     1.0520     0.6500 hn         1 48B       0.321500
     46 H6          -8.7470     2.1240    -1.1660 ha         1 48B       0.152000
     47 H3          -5.5390     1.1220     2.4500 ha         1 48B       0.141000
     48 H2          -7.3220     2.7760     2.8210 ha         1 48B       0.141000
     49 H1          -8.9400     3.2740     1.0050 ha         1 48B       0.140000
@<TRIPOS>BOND
     1     1     2 1   
     2     2     3 ar  
     3     2    15 ar  
     4     3     4 ar  
     5     3    33 1   
     6     4     5 ar  
     7     5     6 1   
     8     5    14 ar  
     9     6     7 1   
    10     6    34 1   
    11     7     8 ar  
    12     7    13 ar  
    13     8     9 ar  
    14     8    35 1   
    15     9    10 ar  
    16     9    36 1   
    17    10    11 1   
    18    10    12 ar  
    19    11    37 1   
    20    12    13 ar  
    21    12    38 1   
    22    13    39 1   
    23    14    15 ar  
    24    15    16 1   
    25    16    17 1   
    26    16    40 1   
    27    17    18 ar  
    28    17    19 ar  
    29    18    22 ar  
    30    18    41 1   
    31    19    20 ar  
    32    19    42 1   
    33    20    21 ar  
    34    20    43 1   
    35    21    22 ar  
    36    21    23 1   
    37    22    44 1   
    38    23    24 1   
    39    23    45 1   
    40    24    25 2   
    41    24    26 1   
    42    26    27 ar  
    43    26    30 ar  
    44    27    28 1   
    45    27    29 ar  
    46    29    32 ar  
    47    29    46 1   
    48    30    31 ar  
    49    30    47 1   
    50    31    32 ar  
    51    31    48 1   
    52    32    49 1   
@<TRIPOS>SUBSTRUCTURE
     1 48B         1 TEMP              0 ****  ****    0 ROOT
