@<TRIPOS>MOLECULE
48B
   49    52     1     0     0
SMALL
No Charge or Current Charge


@<TRIPOS>ATOM
      1 F23          3.2200    -4.6030     0.4930 f          1 48B      -0.174000
      2 C17          3.4880    -3.2760     0.4040 ca         1 48B      -0.068000
      3 C18          4.8130    -2.8130     0.4130 ca         1 48B       0.147900
      4 N19          5.0930    -1.4990     0.3170 nb         1 48B      -0.251000
      5 C20          4.0400    -0.6670     0.2000 ca         1 48B       0.422900
      6 N24          4.2710     0.6980     0.1240 nu         1 48B      -0.923900
      7 C30          5.4130     1.5010    -0.0050 ca         1 48B       0.280000
      8 C29          5.3610     2.8270     0.4630 ca         1 48B      -0.111000
      9 C28          6.4780     3.6770     0.3450 ca         1 48B      -0.147500
     10 C27          7.6560     3.2050    -0.2550 ca         1 48B       0.112100
     11 O31          8.7430     4.0180    -0.3770 oh         1 48B      -0.533100
     12 C26          7.7140     1.8900    -0.7400 ca         1 48B      -0.147500
     13 C25          6.5970     1.0420    -0.6200 ca         1 48B      -0.111000
     14 N21          2.7430    -1.0060     0.1950 nb         1 48B      -0.315000
     15 C22          2.4620    -2.3160     0.3030 ca         1 48B       0.412900
     16 N16          1.1210    -2.7070     0.2660 nu         1 48B      -0.924900
     17 C11         -0.1050    -2.0290     0.3020 ca         1 48B       0.282000
     18 C10         -1.2330    -2.6460    -0.2660 ca         1 48B      -0.120500
     19 C12         -0.2580    -0.7730     0.9170 ca         1 48B      -0.120500
     20 C13         -1.5130    -0.1370     0.9420 ca         1 48B      -0.119500
     21 C14         -2.6410    -0.7480     0.3640 ca         1 48B      -0.045000
     22 C15         -2.4900    -2.0140    -0.2440 ca         1 48B      -0.119500
     23 N9          -3.8760    -0.0420     0.4240 ns         1 48B      -0.139000
     24 C7          -5.1790    -0.3900     0.0820 c          1 48B       0.623700
     25 O8          -5.4810    -1.5060    -0.3260 o          1 48B      -0.557100
     26 C4          -6.2130     0.6960     0.3270 ca         1 48B      -0.152600
     27 C5          -7.4430     0.7450    -0.3860 ca         1 48B       0.160000
     28 Cl1         -7.8620    -0.3920    -1.6710 cl         1 48B      -0.174000
     29 C6          -8.3770     1.7620    -0.1210 ca         1 48B      -0.111000
     30 C3          -5.9650     1.7000     1.3010 ca         1 48B      -0.082000
     31 C2          -6.9090     2.7090     1.5560 ca         1 48B      -0.115000
     32 C1          -8.1160     2.7420     0.8470 ca         1 48B      -0.083000
     33 H18          5.6570    -3.4960     0.4970 h4         1 48B       0.038100
     34 HN24         3.4110     1.2290     0.2600 hn         1 48B       0.507000
     35 H29          4.4540     3.2020     0.9310 ha         1 48B       0.131500
     36 H28          6.4190     4.6960     0.7200 ha         1 48B       0.121500
     37 HO31         8.5250     4.8930     0.0110 ho         1 48B       0.462000
     38 H26          8.6220     1.5270    -1.2160 ha         1 48B       0.121500
     39 H25          6.6550     0.0370    -1.0250 ha         1 48B       0.131500
     40 HN16         1.0270    -3.7130     0.1280 hn         1 48B       0.512000
     41 H10         -1.1360    -3.6190    -0.7400 ha         1 48B       0.131000
     42 H12          0.5850    -0.2870     1.3970 ha         1 48B       0.131000
     43 H13         -1.6060     0.8350     1.4230 ha         1 48B       0.129500
     44 H15         -3.3260    -2.5230    -0.7120 ha         1 48B       0.129500
     45 HN9         -3.7830     0.9050     0.7670 hn         1 48B       0.155000
     46 H6          -9.3100     1.7930    -0.6790 ha         1 48B       0.134000
     47 H3          -5.0500     1.7010     1.8900 ha         1 48B       0.123000
     48 H2          -6.7030     3.4660     2.3110 ha         1 48B       0.123000
     49 H1          -8.8460     3.5240     1.0450 ha         1 48B       0.122000
@<TRIPOS>BOND
     1     1     2 1   
     2     2     3 ar  
     3     2    15 ar  
     4     3     4 ar  
     5     3    33 1   
     6     4     5 ar  
     7     5     6 1   
     8     5    14 ar  
     9     6     7 1   
    10     6    34 1   
    11     7     8 ar  
    12     7    13 ar  
    13     8     9 ar  
    14     8    35 1   
    15     9    10 ar  
    16     9    36 1   
    17    10    11 1   
    18    10    12 ar  
    19    11    37 1   
    20    12    13 ar  
    21    12    38 1   
    22    13    39 1   
    23    14    15 ar  
    24    15    16 1   
    25    16    17 1   
    26    16    40 1   
    27    17    18 ar  
    28    17    19 ar  
    29    18    22 ar  
    30    18    41 1   
    31    19    20 ar  
    32    19    42 1   
    33    20    21 ar  
    34    20    43 1   
    35    21    22 ar  
    36    21    23 1   
    37    22    44 1   
    38    23    24 1   
    39    23    45 1   
    40    24    25 2   
    41    24    26 1   
    42    26    27 ar  
    43    26    30 ar  
    44    27    28 1   
    45    27    29 ar  
    46    29    32 ar  
    47    29    46 1   
    48    30    31 ar  
    49    30    47 1   
    50    31    32 ar  
    51    31    48 1   
    52    32    49 1   
@<TRIPOS>SUBSTRUCTURE
     1 48B         1 TEMP              0 ****  ****    0 ROOT
