@<TRIPOS>MOLECULE
48C
   40    41     1     0     0
SMALL
abcg2


@<TRIPOS>ATOM
      1 OAZ          3.5780     0.7410     1.7410 o          1 48C      -0.550000
      2 CAU          3.3060    -0.0550     0.8650 c          1 48C       0.613000
      3 NAT          4.2400    -0.8870     0.3090 ns         1 48C      -0.468500
      4 CAV          4.0530    -1.8250    -0.6960 c          1 48C       0.589200
      5 OBA          4.9870    -2.4940    -1.0990 o          1 48C      -0.523000
      6 CAX          2.6920    -1.8960    -1.1630 cc         1 48C      -0.387200
      7 CAY          1.7580    -1.0930    -0.6240 cd         1 48C       0.006600
      8 NAW          2.0320    -0.1850     0.3540 n          1 48C      -0.340000
      9 CBB          0.9980     0.6990     0.9370 c5         1 48C       0.341700
     10 OBE         -0.2650     0.2070     0.6200 os         1 48C      -0.454000
     11 CBD          1.0820     2.1170     0.3690 c5         1 48C       0.105300
     12 OBG          0.6280     3.0000     1.3570 oh         1 48C      -0.698000
     13 CBC          0.0840     2.0340    -0.7920 c5         1 48C       0.094300
     14 OBH         -0.4760     3.2650    -1.1480 oh         1 48C      -0.698000
     15 CBF         -0.9850     1.1140    -0.2160 c5         1 48C       0.134300
     16 CAA         -1.7670     0.3470    -1.2660 c3         1 48C       0.108000
     17 NAB         -2.7260    -0.5710    -0.7040 ns         1 48C      -0.500900
     18 C           -3.9370    -0.1890    -0.2670 c          1 48C       0.609100
     19 O           -4.3500     0.9570    -0.3710 o          1 48C      -0.597100
     20 CA          -4.7580    -1.2710     0.4200 c3         1 48C       0.085500
     21 N           -6.1240    -1.1860    -0.0640 n8         1 48C      -0.984200
     22 CB          -4.6010    -1.1090     1.9350 c3         1 48C      -0.132100
     23 H1           5.1770    -0.7930     0.6810 hn         1 48C       0.344500
     24 H2           2.4270    -2.6010    -1.9350 ha         1 48C       0.222000
     25 H3           0.7310    -1.1490    -0.9470 h4         1 48C       0.211000
     26 H4           1.1460     0.6900     2.0180 h2         1 48C       0.127700
     27 H5           2.0930     2.3710     0.0300 h1         1 48C       0.075700
     28 H6           0.2050     3.7460     0.9140 ho         1 48C       0.528000
     29 H7           0.5710     1.5510    -1.6520 h1         1 48C       0.050700
     30 H8           0.1120     3.7090    -1.7690 ho         1 48C       0.519000
     31 H9          -1.6800     1.6950     0.4010 h1         1 48C       0.102700
     32 H10         -2.2780     1.0670    -1.9060 h1         1 48C       0.064200
     33 H11         -1.0890    -0.2210    -1.9060 h1         1 48C       0.064200
     34 H12         -2.4430    -1.5290    -0.5760 hn         1 48C       0.319500
     35 H13         -4.3670    -2.2530     0.1380 h1         1 48C       0.061700
     36 H14         -6.6860    -1.8810     0.4090 hn         1 48C       0.406500
     37 H15         -6.5160    -0.2870     0.1920 hn         1 48C       0.406500
     38 H17         -3.5590    -1.1940     2.2480 hc         1 48C       0.047700
     39 H18         -4.9760    -0.1370     2.2600 hc         1 48C       0.047700
     40 H19         -5.1680    -1.8830     2.4540 hc         1 48C       0.047700
@<TRIPOS>BOND
     1     1     2 2   
     2     2     3 1   
     3     2     8 1   
     4     3     4 1   
     5     3    23 1   
     6     4     5 2   
     7     4     6 1   
     8     6     7 2   
     9     6    24 1   
    10     7     8 1   
    11     7    25 1   
    12     8     9 1   
    13     9    10 1   
    14     9    11 1   
    15     9    26 1   
    16    10    15 1   
    17    11    12 1   
    18    11    13 1   
    19    11    27 1   
    20    12    28 1   
    21    13    14 1   
    22    13    15 1   
    23    13    29 1   
    24    14    30 1   
    25    15    16 1   
    26    15    31 1   
    27    16    17 1   
    28    16    32 1   
    29    16    33 1   
    30    17    18 1   
    31    17    34 1   
    32    18    19 2   
    33    18    20 1   
    34    20    21 1   
    35    20    22 1   
    36    20    35 1   
    37    21    36 1   
    38    21    37 1   
    39    22    38 1   
    40    22    39 1   
    41    22    40 1   
@<TRIPOS>SUBSTRUCTURE
     1 48C         1 TEMP              0 ****  ****    0 ROOT
