@<TRIPOS>MOLECULE
48C
   40    41     1     0     0
SMALL
No Charge or Current Charge


@<TRIPOS>ATOM
      1 OAZ          3.1050     0.1470     2.3880 o          1 48C      -0.550000
      2 CAU          3.1460    -0.3760     1.2870 c          1 48C       0.613000
      3 NAT          4.2160    -1.1310     0.9200 ns         1 48C      -0.468500
      4 CAV          4.4230    -1.7770    -0.2550 c          1 48C       0.589200
      5 OBA          5.4290    -2.4280    -0.4720 o          1 48C      -0.523000
      6 CAX          3.3300    -1.6120    -1.2100 cc         1 48C      -0.387200
      7 CAY          2.2130    -0.8660    -0.9160 cd         1 48C       0.006600
      8 NAW          2.1220    -0.2400     0.3290 n          1 48C      -0.340000
      9 CBB          0.9370     0.5840     0.6900 c5         1 48C       0.341700
     10 OBE         -0.2660     0.0450     0.0880 os         1 48C      -0.454000
     11 CBD          1.1550     2.0220     0.0700 c5         1 48C       0.105300
     12 OBG          0.7950     3.0870     0.9620 oh         1 48C      -0.698000
     13 CBC          0.1300     2.0170    -1.1050 c5         1 48C       0.094300
     14 OBH         -0.2780     3.3590    -1.4330 oh         1 48C      -0.698000
     15 CBF         -1.0010     1.1510    -0.4740 c5         1 48C       0.134300
     16 CAA         -2.0740     0.6340    -1.4650 c3         1 48C       0.108000
     17 NAB         -3.0380    -0.3090    -0.8810 ns         1 48C      -0.500900
     18 C           -3.9880     0.0240     0.0620 c          1 48C       0.609100
     19 O           -4.1440     1.1800     0.4400 o          1 48C      -0.597100
     20 CA          -4.8630    -1.1740     0.5910 c3         1 48C       0.085500
     21 N           -6.3390    -1.0550     0.3520 n8         1 48C      -0.984200
     22 CB          -4.6130    -1.4280     2.0930 c3         1 48C      -0.132100
     23 H1           4.9460    -1.2220     1.6070 hn         1 48C       0.344500
     24 H2           3.4550    -2.1190    -2.1610 ha         1 48C       0.222000
     25 H3           1.3680    -0.7180    -1.5850 h4         1 48C       0.211000
     26 H4           0.8450     0.6260     1.7830 h2         1 48C       0.127700
     27 H5           2.1810     2.1590    -0.2990 h1         1 48C       0.075700
     28 H6           0.2920     3.6990     0.3630 ho         1 48C       0.528000
     29 H7           0.5580     1.5150    -1.9850 h1         1 48C       0.050700
     30 H8          -0.5510     3.3680    -2.3830 ho         1 48C       0.519000
     31 H9          -1.5030     1.6940     0.3400 h1         1 48C       0.102700
     32 H10         -2.6240     1.4930    -1.8720 h1         1 48C       0.064200
     33 H11         -1.5700     0.1370    -2.3040 h1         1 48C       0.064200
     34 H12         -2.9750    -1.2860    -1.1400 hn         1 48C       0.319500
     35 H13         -4.5250    -2.0710     0.0540 h1         1 48C       0.061700
     36 H14         -6.8260    -1.8190     0.8370 hn         1 48C       0.406500
     37 H15         -6.6870    -0.2100     0.8240 hn         1 48C       0.406500
     38 H17         -3.5450    -1.5970     2.2770 hc         1 48C       0.047700
     39 H18         -4.9290    -0.5670     2.6960 hc         1 48C       0.047700
     40 H19         -5.1580    -2.3140     2.4390 hc         1 48C       0.047700
@<TRIPOS>BOND
     1     1     2 2   
     2     2     3 1   
     3     2     8 1   
     4     3     4 1   
     5     3    23 1   
     6     4     5 2   
     7     4     6 1   
     8     6     7 2   
     9     6    24 1   
    10     7     8 1   
    11     7    25 1   
    12     8     9 1   
    13     9    10 1   
    14     9    11 1   
    15     9    26 1   
    16    10    15 1   
    17    11    12 1   
    18    11    13 1   
    19    11    27 1   
    20    12    28 1   
    21    13    14 1   
    22    13    15 1   
    23    13    29 1   
    24    14    30 1   
    25    15    16 1   
    26    15    31 1   
    27    16    17 1   
    28    16    32 1   
    29    16    33 1   
    30    17    18 1   
    31    17    34 1   
    32    18    19 2   
    33    18    20 1   
    34    20    21 1   
    35    20    22 1   
    36    20    35 1   
    37    21    36 1   
    38    21    37 1   
    39    22    38 1   
    40    22    39 1   
    41    22    40 1   
@<TRIPOS>SUBSTRUCTURE
     1 48C         1 TEMP              0 ****  ****    0 ROOT
