@<TRIPOS>MOLECULE
48D
   48    48     1     0     0
SMALL
bcc


@<TRIPOS>ATOM
      1 C1          -0.3100     3.6750     1.0550 c3         1 48D      -0.060900
      2 C2          -0.8780     2.5010     0.3110 c2         1 48D      -0.105400
      3 C3          -0.1750     1.7430    -0.5330 c2         1 48D      -0.170200
      4 C4           1.2620     1.9420    -0.9340 c3         1 48D      -0.020500
      5 C5           1.4720     1.4970    -2.3800 c3         1 48D      -0.083100
      6 C6           2.2480     1.2960     0.0480 c3         1 48D       0.166100
      7 O7           3.5190     1.8430    -0.2270 oh         1 48D      -0.605800
      8 C8           2.3160    -0.2320    -0.0180 c3         1 48D       0.144300
      9 O9           3.3900    -0.5820     0.8540 os         1 48D      -0.428600
     10 C10          3.9350    -1.8560     0.6220 c3         1 48D       0.126700
     11 C11          1.0760    -0.9440     0.4290 c2         1 48D      -0.192200
     12 C12          0.6210    -2.0480    -0.1600 c2         1 48D      -0.156200
     13 C13         -0.4130    -2.9770     0.3940 c3         1 48D      -0.046200
     14 C14         -1.4880    -3.4460    -0.5980 c3         1 48D      -0.065400
     15 C15         -2.8280    -2.7160    -0.5430 c3         1 48D      -0.060400
     16 C16         -2.8220    -1.2410    -0.9320 c3         1 48D      -0.179400
     17 C17         -2.6920    -0.2330     0.1810 c          1 48D       0.574100
     18 O18         -2.4130    -0.5260     1.3220 o          1 48D      -0.521100
     19 C19         -3.0250     1.1890    -0.2140 c3         1 48D      -0.181400
     20 C20         -2.3380     2.2710     0.5980 c3         1 48D      -0.029200
     21 H1           0.7460     3.8480     0.8580 hc         1 48D       0.042367
     22 H1A         -0.8510     4.5910     0.8010 hc         1 48D       0.042367
     23 H1B         -0.4250     3.5370     2.1330 hc         1 48D       0.042367
     24 H3          -0.6640     0.9050    -1.0200 ha         1 48D       0.117000
     25 H4           1.4860     3.0120    -0.8900 hc         1 48D       0.067700
     26 H5           0.8760     2.1130    -3.0540 hc         1 48D       0.035367
     27 H5A          2.5150     1.5870    -2.6830 hc         1 48D       0.035367
     28 H5B          1.1650     0.4610    -2.5340 hc         1 48D       0.035367
     29 H6           1.9280     1.5690     1.0670 h1         1 48D       0.045700
     30 HO7          4.1600     1.3480     0.2980 ho         1 48D       0.422000
     31 H8           2.5730    -0.5420    -1.0430 h1         1 48D       0.045700
     32 H10          3.2100    -2.6590     0.7940 h1         1 48D       0.030033
     33 H10A         4.3120    -1.9570    -0.4020 h1         1 48D       0.030033
     34 H10B         4.7660    -1.9910     1.3130 h1         1 48D       0.030033
     35 H11          0.6150    -0.6010     1.3510 ha         1 48D       0.142000
     36 H12          1.0970    -2.3740    -1.0850 ha         1 48D       0.106000
     37 H13          0.1320    -3.8640     0.7350 hc         1 48D       0.056200
     38 H13A        -0.8730    -2.5460     1.2850 hc         1 48D       0.056200
     39 H14         -1.0940    -3.4040    -1.6190 hc         1 48D       0.036700
     40 H14A        -1.6960    -4.5020    -0.4080 hc         1 48D       0.036700
     41 H15         -3.5050    -3.2350    -1.2260 hc         1 48D       0.044700
     42 H15A        -3.2630    -2.8360     0.4520 hc         1 48D       0.044700
     43 H16         -2.0290    -1.0270    -1.6600 hc         1 48D       0.059700
     44 H16A        -3.7450    -0.9870    -1.4640 hc         1 48D       0.059700
     45 H19         -2.8640     1.3310    -1.2850 hc         1 48D       0.059200
     46 H19A        -4.1100     1.2740    -0.0760 hc         1 48D       0.059200
     47 H20         -2.4680     2.0690     1.6660 hc         1 48D       0.055700
     48 H20A        -2.8650     3.2160     0.4260 hc         1 48D       0.055700
@<TRIPOS>BOND
     1     1     2 1   
     2     1    21 1   
     3     1    22 1   
     4     1    23 1   
     5     2     3 2   
     6     2    20 1   
     7     3     4 1   
     8     3    24 1   
     9     4     5 1   
    10     4     6 1   
    11     4    25 1   
    12     5    26 1   
    13     5    27 1   
    14     5    28 1   
    15     6     7 1   
    16     6     8 1   
    17     6    29 1   
    18     7    30 1   
    19     8     9 1   
    20     8    11 1   
    21     8    31 1   
    22     9    10 1   
    23    10    32 1   
    24    10    33 1   
    25    10    34 1   
    26    11    12 2   
    27    11    35 1   
    28    12    13 1   
    29    12    36 1   
    30    13    14 1   
    31    13    37 1   
    32    13    38 1   
    33    14    15 1   
    34    14    39 1   
    35    14    40 1   
    36    15    16 1   
    37    15    41 1   
    38    15    42 1   
    39    16    17 1   
    40    16    43 1   
    41    16    44 1   
    42    17    18 2   
    43    17    19 1   
    44    19    20 1   
    45    19    45 1   
    46    19    46 1   
    47    20    47 1   
    48    20    48 1   
@<TRIPOS>SUBSTRUCTURE
     1 48D         1 TEMP              0 ****  ****    0 ROOT
