@<TRIPOS>MOLECULE
48D
   48    48     1     0     0
SMALL
No Charge or Current Charge


@<TRIPOS>ATOM
      1 C1          -0.3660     3.5700     1.2230 c3         1 48D      -0.060900
      2 C2          -0.9430     2.5430     0.2550 c2         1 48D      -0.105400
      3 C3          -0.2260     1.8930    -0.6880 c2         1 48D      -0.220200
      4 C4           1.2550     2.0690    -0.9960 c3         1 48D      -0.020500
      5 C5           1.5660     1.7310    -2.4760 c3         1 48D      -0.083100
      6 C6           2.1660     1.3330     0.0370 c3         1 48D       0.189300
      7 O7           3.4990     1.8650    -0.0220 oh         1 48D      -0.728000
      8 C8           2.2690    -0.2230    -0.1050 c3         1 48D       0.167500
      9 O9           3.4650    -0.6190     0.6140 os         1 48D      -0.475000
     10 C10          3.9020    -1.9790     0.4150 c3         1 48D       0.149900
     11 C11          1.0920    -0.9980     0.4670 c2         1 48D      -0.242200
     12 C12          0.6370    -2.1630    -0.0260 c2         1 48D      -0.206200
     13 C13         -0.4040    -3.0610     0.6160 c3         1 48D      -0.046200
     14 C14         -1.4750    -3.5770    -0.3760 c3         1 48D      -0.065400
     15 C15         -2.7530    -2.7130    -0.5100 c3         1 48D      -0.060400
     16 C16         -2.5260    -1.2400    -0.9410 c3         1 48D      -0.179400
     17 C17         -2.6610    -0.1860     0.1770 c          1 48D       0.574100
     18 O18         -2.4580    -0.4470     1.3570 o          1 48D      -0.521100
     19 C19         -3.1360     1.2090    -0.2630 c3         1 48D      -0.181400
     20 C20         -2.4470     2.3830     0.4760 c3         1 48D      -0.029200
     21 H1           0.7120     3.7190     1.1100 hc         1 48D       0.042367
     22 H1A         -0.8420     4.5490     1.0860 hc         1 48D       0.042367
     23 H1B         -0.5340     3.2650     2.2630 hc         1 48D       0.042367
     24 H3          -0.7120     1.1850    -1.3560 ha         1 48D       0.167000
     25 H4           1.4850     3.1370    -0.8970 hc         1 48D       0.067700
     26 H5           1.0010     2.3940    -3.1430 hc         1 48D       0.035367
     27 H5A          2.6320     1.8640    -2.6940 hc         1 48D       0.035367
     28 H5B          1.2880     0.6990    -2.7190 hc         1 48D       0.035367
     29 H6           1.7610     1.5380     1.0370 h1         1 48D       0.045700
     30 HO7          4.0420     1.0970     0.2870 ho         1 48D       0.521000
     31 H8           2.3860    -0.4750    -1.1670 h1         1 48D       0.045700
     32 H10          3.1820    -2.6930     0.8330 h1         1 48D       0.030033
     33 H10A         4.0310    -2.1960    -0.6530 h1         1 48D       0.030033
     34 H10B         4.8650    -2.1440     0.9140 h1         1 48D       0.030033
     35 H11          0.6760    -0.5810     1.3860 ha         1 48D       0.192000
     36 H12          1.0910    -2.5850    -0.9250 ha         1 48D       0.156000
     37 H13          0.1150    -3.9360     1.0270 hc         1 48D       0.056200
     38 H13A        -0.8830    -2.5760     1.4750 hc         1 48D       0.056200
     39 H14         -1.0230    -3.7180    -1.3660 hc         1 48D       0.036700
     40 H14A        -1.7900    -4.5750    -0.0460 hc         1 48D       0.036700
     41 H15         -3.3950    -3.1920    -1.2610 hc         1 48D       0.044700
     42 H15A        -3.3220    -2.7510     0.4270 hc         1 48D       0.044700
     43 H16         -1.5530    -1.1050    -1.4250 hc         1 48D       0.059700
     44 H16A        -3.2160    -0.9660    -1.7480 hc         1 48D       0.059700
     45 H19         -3.0510     1.3190    -1.3500 hc         1 48D       0.059200
     46 H19A        -4.2120     1.2510    -0.0580 hc         1 48D       0.059200
     47 H20         -2.6500     2.2650     1.5490 hc         1 48D       0.055700
     48 H20A        -2.9510     3.3120     0.1830 hc         1 48D       0.055700
@<TRIPOS>BOND
     1     1     2 1   
     2     1    21 1   
     3     1    22 1   
     4     1    23 1   
     5     2     3 2   
     6     2    20 1   
     7     3     4 1   
     8     3    24 1   
     9     4     5 1   
    10     4     6 1   
    11     4    25 1   
    12     5    26 1   
    13     5    27 1   
    14     5    28 1   
    15     6     7 1   
    16     6     8 1   
    17     6    29 1   
    18     7    30 1   
    19     8     9 1   
    20     8    11 1   
    21     8    31 1   
    22     9    10 1   
    23    10    32 1   
    24    10    33 1   
    25    10    34 1   
    26    11    12 2   
    27    11    35 1   
    28    12    13 1   
    29    12    36 1   
    30    13    14 1   
    31    13    37 1   
    32    13    38 1   
    33    14    15 1   
    34    14    39 1   
    35    14    40 1   
    36    15    16 1   
    37    15    41 1   
    38    15    42 1   
    39    16    17 1   
    40    16    43 1   
    41    16    44 1   
    42    17    18 2   
    43    17    19 1   
    44    19    20 1   
    45    19    45 1   
    46    19    46 1   
    47    20    47 1   
    48    20    48 1   
@<TRIPOS>SUBSTRUCTURE
     1 48D         1 TEMP              0 ****  ****    0 ROOT
