@<TRIPOS>MOLECULE
48E
   55    58     1     0     0
SMALL
bcc


@<TRIPOS>ATOM
      1 OAG          6.7050    -0.7220     0.3540 o          1 48E      -0.626500
      2 CAB          5.8270    -1.1790    -0.3480 c          1 48E       0.823500
      3 NAA          6.0430    -2.2080    -1.2230 ns         1 48E      -0.602500
      4 CAC          5.1300    -2.7960    -2.0880 c          1 48E       0.731700
      5 OAH          5.4720    -3.7010    -2.8260 o          1 48E      -0.593500
      6 CAE          3.8100    -2.2250    -1.9960 cc         1 48E      -0.329200
      7 CAF          3.5740    -1.2220    -1.1330 cd         1 48E       0.052600
      8 NAD          4.5360    -0.6930    -0.3250 n          1 48E      -0.408000
      9 CAI          4.2760     0.4200     0.6110 c5         1 48E       0.322500
     10 OAL          2.9050     0.5250     0.8420 os         1 48E      -0.412600
     11 CAK          4.7370     1.7630     0.0410 c5         1 48E       0.082100
     12 OAN          5.1170     2.5710     1.1200 oh         1 48E      -0.575800
     13 CAJ          3.4440     2.2790    -0.6030 c5         1 48E       0.072100
     14 OAO          3.3770     3.6720    -0.7040 oh         1 48E      -0.581800
     15 CAM          2.3890     1.7710     0.3720 c5         1 48E       0.121100
     16 CAP          1.0300     1.5630    -0.2570 c3         1 48E       0.098000
     17 NAQ          0.0870     1.0240     0.6970 ns         1 48E      -0.558900
     18 C           -1.2200     1.3020     0.6710 c          1 48E       0.656100
     19 O           -1.7540     2.0520    -0.1270 o          1 48E      -0.585100
     20 CA          -2.0380     0.6300     1.7740 c3         1 48E      -0.024000
     21 CB          -2.4860     1.6780     2.7840 c3         1 48E       0.132400
     22 OG          -3.2170     1.0230     3.7840 oh         1 48E      -0.584800
     23 N           -3.1650    -0.0610     1.1860 na         1 48E       0.111400
     24 CAY         -4.2780     0.4450     0.6350 cc         1 48E      -0.200600
     25 NAX         -3.1600    -1.3840     1.1150 nc         1 48E      -0.204800
     26 NAZ         -4.2440    -1.7520     0.5340 nd         1 48E      -0.348000
     27 CBA         -4.9790    -0.6610     0.2130 cd         1 48E       0.319800
     28 CBB         -6.2720    -0.7480    -0.4600 ca         1 48E      -0.103500
     29 CBF         -6.8340    -1.9900    -0.7580 ca         1 48E      -0.111000
     30 CBD         -8.0610    -2.0730    -1.3970 ca         1 48E      -0.132000
     31 CBC         -8.7490    -0.9190    -1.7510 ca         1 48E      -0.125000
     32 CBE         -8.1970     0.3210    -1.4580 ca         1 48E      -0.132000
     33 CBG         -6.9690     0.4060    -0.8190 ca         1 48E      -0.111000
     34 H1           6.9900    -2.5650    -1.2440 hn         1 48E       0.345500
     35 H2           3.0160    -2.6110    -2.6150 ha         1 48E       0.176000
     36 H3           2.5840    -0.8040    -1.0400 h4         1 48E       0.162000
     37 H4           4.7950     0.1790     1.5410 h2         1 48E       0.130700
     38 H5           5.5450     1.6480    -0.6900 h1         1 48E       0.077700
     39 H6           4.9760     3.4910     0.8650 ho         1 48E       0.428000
     40 H7           3.3090     1.7990    -1.5810 h1         1 48E       0.056700
     41 H8           3.7930     3.9480    -1.5260 ho         1 48E       0.424000
     42 H9           2.2970     2.4640     1.2160 h1         1 48E       0.092700
     43 H10          0.6660     2.5290    -0.6080 h1         1 48E       0.067700
     44 H11          1.1070     0.9110    -1.1330 h1         1 48E       0.067700
     45 H12          0.4130     0.2980     1.3160 hn         1 48E       0.334500
     46 H13         -1.4530    -0.1350     2.2890 h1         1 48E       0.108700
     47 H14         -1.5840     2.1660     3.1740 h1         1 48E       0.040700
     48 H15         -3.0760     2.4510     2.2780 h1         1 48E       0.040700
     49 H16         -3.5820     1.6880     4.3750 ho         1 48E       0.418000
     50 H17         -4.4870     1.5000     0.5880 h4         1 48E       0.193000
     51 H18         -6.3080    -2.8980    -0.4900 ha         1 48E       0.137500
     52 H19         -8.4830    -3.0450    -1.6190 ha         1 48E       0.129500
     53 H20         -9.7060    -0.9860    -2.2510 ha         1 48E       0.129000
     54 H21         -8.7230     1.2280    -1.7270 ha         1 48E       0.129500
     55 H22         -6.5550     1.3830    -0.6030 ha         1 48E       0.137500
@<TRIPOS>BOND
     1     1     2 2   
     2     2     3 1   
     3     2     8 1   
     4     3     4 1   
     5     3    34 1   
     6     4     5 2   
     7     4     6 1   
     8     6     7 2   
     9     6    35 1   
    10     7     8 1   
    11     7    36 1   
    12     8     9 1   
    13     9    10 1   
    14     9    11 1   
    15     9    37 1   
    16    10    15 1   
    17    11    12 1   
    18    11    13 1   
    19    11    38 1   
    20    12    39 1   
    21    13    14 1   
    22    13    15 1   
    23    13    40 1   
    24    14    41 1   
    25    15    16 1   
    26    15    42 1   
    27    16    17 1   
    28    16    43 1   
    29    16    44 1   
    30    17    18 1   
    31    17    45 1   
    32    18    19 2   
    33    18    20 1   
    34    20    21 1   
    35    20    23 1   
    36    20    46 1   
    37    21    22 1   
    38    21    47 1   
    39    21    48 1   
    40    22    49 1   
    41    23    24 1   
    42    23    25 1   
    43    24    27 2   
    44    24    50 1   
    45    25    26 2   
    46    26    27 1   
    47    27    28 1   
    48    28    29 ar  
    49    28    33 ar  
    50    29    30 ar  
    51    29    51 1   
    52    30    31 ar  
    53    30    52 1   
    54    31    32 ar  
    55    31    53 1   
    56    32    33 ar  
    57    32    54 1   
    58    33    55 1   
@<TRIPOS>SUBSTRUCTURE
     1 48E         1 TEMP              0 ****  ****    0 ROOT
