@<TRIPOS>MOLECULE
48E
   55    58     1     0     0
SMALL
No Charge or Current Charge


@<TRIPOS>ATOM
      1 OAG          5.9660     0.9610     2.1540 o          1 48E      -0.551000
      2 CAB          5.9970     0.1360     1.2570 c          1 48E       0.614000
      3 NAA          7.0680    -0.6900     1.1160 ns         1 48E      -0.468500
      4 CAC          7.2660    -1.6550     0.1820 c          1 48E       0.589200
      5 OAH          8.2740    -2.3370     0.1550 o          1 48E      -0.518000
      6 CAE          6.1620    -1.7830    -0.7650 cc         1 48E      -0.379200
      7 CAF          5.0430    -0.9860    -0.6910 cd         1 48E       0.002600
      8 NAD          4.9620    -0.0210     0.3150 n          1 48E      -0.341000
      9 CAI          3.7760     0.8700     0.4310 c5         1 48E       0.345700
     10 OAL          2.5710     0.1740     0.0290 os         1 48E      -0.459000
     11 CAK          3.9780     2.0620    -0.5880 c5         1 48E       0.105300
     12 OAN          3.6240     3.3420    -0.0450 oh         1 48E      -0.698000
     13 CAJ          2.9380     1.7110    -1.6940 c5         1 48E       0.095300
     14 OAO          2.5170     2.8980    -2.3950 oh         1 48E      -0.704000
     15 CAM          1.8210     1.0640    -0.8210 c5         1 48E       0.144300
     16 CAP          0.7400     0.2750    -1.6000 c3         1 48E       0.098000
     17 NAQ         -0.1990    -0.4740    -0.7500 ns         1 48E      -0.491900
     18 C           -1.1380     0.1070     0.0770 c          1 48E       0.589100
     19 O           -1.2900     1.3210     0.1200 o          1 48E      -0.585100
     20 CA          -1.9640    -0.8620     0.9310 c3         1 48E       0.005300
     21 CB          -1.8120    -0.5270     2.4330 c3         1 48E       0.155600
     22 OG          -2.4320    -1.5420     3.2380 oh         1 48E      -0.647000
     23 N           -3.3620    -0.8900     0.4670 na         1 48E       0.132800
     24 CAY         -4.3240     0.0770     0.6310 cc         1 48E      -0.168000
     25 NAX         -3.8380    -1.9530    -0.2410 nc         1 48E      -0.204800
     26 NAZ         -5.0840    -1.6860    -0.5230 nd         1 48E      -0.348000
     27 CBA         -5.4150    -0.4490    -0.0030 cd         1 48E       0.254500
     28 CBB         -6.7540     0.1640    -0.1450 ca         1 48E      -0.103500
     29 CBF         -7.7880    -0.5080    -0.8350 ca         1 48E      -0.093000
     30 CBD         -9.0590     0.0780    -0.9680 ca         1 48E      -0.114000
     31 CBC         -9.3140     1.3420    -0.4150 ca         1 48E      -0.107000
     32 CBE         -8.2950     2.0210     0.2720 ca         1 48E      -0.114000
     33 CBG         -7.0240     1.4370     0.4070 ca         1 48E      -0.093000
     34 H1           7.8060    -0.5710     1.7900 hn         1 48E       0.345500
     35 H2           6.2790    -2.5480    -1.5240 ha         1 48E       0.226000
     36 H3           4.1890    -1.0470    -1.3620 h4         1 48E       0.212000
     37 H4           3.6960     1.2330     1.4640 h2         1 48E       0.130700
     38 H5           4.9990     2.0850    -0.9960 h1         1 48E       0.077700
     39 H6           3.1070     3.7480    -0.7910 ho         1 48E       0.527000
     40 H7           3.3580     0.9740    -2.3950 h1         1 48E       0.056700
     41 H8           2.2290     2.6290    -3.3010 ho         1 48E       0.523000
     42 H9           1.3260     1.8190    -0.1940 h1         1 48E       0.092700
     43 H10          0.1680     0.9770    -2.2220 h1         1 48E       0.067700
     44 H11          1.2370    -0.4340    -2.2750 h1         1 48E       0.067700
     45 H12         -0.1220    -1.4850    -0.7290 hn         1 48E       0.334500
     46 H13         -1.5430    -1.8620     0.7810 h1         1 48E       0.108700
     47 H14         -0.7420    -0.4600     2.6750 h1         1 48E       0.040700
     48 H15         -2.2600     0.4540     2.6390 h1         1 48E       0.040700
     49 H16         -2.3050    -1.2860     4.1800 ho         1 48E       0.457000
     50 H17         -4.1620     1.0090     1.1520 h4         1 48E       0.175000
     51 H18         -7.6140    -1.4890    -1.2720 ha         1 48E       0.119500
     52 H19         -9.8470    -0.4500    -1.5020 ha         1 48E       0.111500
     53 H20        -10.2980     1.7950    -0.5190 ha         1 48E       0.111000
     54 H21         -8.4910     3.0010     0.7010 ha         1 48E       0.111500
     55 H22         -6.2520     1.9830     0.9430 ha         1 48E       0.119500
@<TRIPOS>BOND
     1     1     2 2   
     2     2     3 1   
     3     2     8 1   
     4     3     4 1   
     5     3    34 1   
     6     4     5 2   
     7     4     6 1   
     8     6     7 2   
     9     6    35 1   
    10     7     8 1   
    11     7    36 1   
    12     8     9 1   
    13     9    10 1   
    14     9    11 1   
    15     9    37 1   
    16    10    15 1   
    17    11    12 1   
    18    11    13 1   
    19    11    38 1   
    20    12    39 1   
    21    13    14 1   
    22    13    15 1   
    23    13    40 1   
    24    14    41 1   
    25    15    16 1   
    26    15    42 1   
    27    16    17 1   
    28    16    43 1   
    29    16    44 1   
    30    17    18 1   
    31    17    45 1   
    32    18    19 2   
    33    18    20 1   
    34    20    21 1   
    35    20    23 1   
    36    20    46 1   
    37    21    22 1   
    38    21    47 1   
    39    21    48 1   
    40    22    49 1   
    41    23    24 1   
    42    23    25 1   
    43    24    27 2   
    44    24    50 1   
    45    25    26 2   
    46    26    27 1   
    47    27    28 1   
    48    28    29 ar  
    49    28    33 ar  
    50    29    30 ar  
    51    29    51 1   
    52    30    31 ar  
    53    30    52 1   
    54    31    32 ar  
    55    31    53 1   
    56    32    33 ar  
    57    32    54 1   
    58    33    55 1   
@<TRIPOS>SUBSTRUCTURE
     1 48E         1 TEMP              0 ****  ****    0 ROOT
