@<TRIPOS>MOLECULE
48F
   57    59     1     0     0
SMALL
No Charge or Current Charge


@<TRIPOS>ATOM
      1 O1A          0.7130     3.5470     1.6460 o          1 48F      -0.843000
      2 PA           0.6700     4.0540     0.2420 p5         1 48F       1.471800
      3 O2A          1.6220     5.1820     0.0090 o          1 48F      -0.843000
      4 O3A          0.7680     2.9610    -0.8860 os         1 48F      -0.696800
      5 PB           1.9480     1.9400    -0.6750 p5         1 48F       1.471800
      6 O1B          3.1860     2.5250    -0.0850 o          1 48F      -0.840000
      7 O5D          1.2360     0.8820     0.3070 os         1 48F      -0.597400
      8 C5D          1.9780    -0.1860     0.9290 c3         1 48F       0.199600
      9 C4D          2.2230    -1.3970    -0.0440 c3         1 48F       0.136300
     10 O4D          3.0590    -1.0380    -1.1640 oh         1 48F      -0.766000
     11 C3D          2.8780    -2.6070     0.7000 c3         1 48F       0.077300
     12 C2D          3.2240    -3.7840    -0.2700 c          1 48F       0.563100
     13 C1D          4.5820    -3.6880    -1.0310 c3         1 48F       0.050600
     14 O1D          5.3840    -4.8930    -0.9390 oh         1 48F      -0.636000
     15 O2D          2.4910    -4.7660    -0.3880 o          1 48F      -0.515100
     16 O3D          2.0660    -3.0330     1.8310 oh         1 48F      -0.685000
     17 O2B          2.2600     1.2480    -1.9600 o          1 48F      -0.840000
     18 O5          -0.8180     4.5770    -0.0970 os         1 48F      -0.581400
     19 C5          -1.9770     3.8020     0.2450 c3         1 48F       0.230600
     20 C4          -2.5270     3.0800    -1.0240 c5         1 48F       0.141300
     21 O4          -1.9650     1.7420    -1.1220 os         1 48F      -0.389000
     22 C1          -2.9690     0.7650    -0.7690 c5         1 48F       0.326300
     23 C2          -4.1230     1.5770    -0.0880 c5         1 48F       0.062300
     24 O2          -5.4110     0.9300    -0.1360 oh         1 48F      -0.703000
     25 C3          -4.0770     2.8550    -0.9710 c5         1 48F       0.099300
     26 O3          -4.6580     2.6100    -2.2600 oh         1 48F      -0.709000
     27 N9          -2.3450    -0.3250    -0.0230 na         1 48F      -0.287300
     28 C8          -2.2450    -0.4290     1.3690 cc         1 48F       0.483700
     29 N7          -1.6730    -1.5960     1.7340 nd         1 48F      -0.566100
     30 C7          -1.4040    -2.2170     0.5120 ca         1 48F      -0.063600
     31 C9          -1.8020    -1.4570    -0.5580 ca         1 48F       0.113500
     32 C6          -0.8010    -3.4640     0.2550 ca         1 48F       0.386900
     33 N6          -0.3550    -4.2850     1.2480 nv         1 48F      -1.038900
     34 N1          -0.6230    -3.9020    -1.0010 nb         1 48F      -0.284000
     35 C10         -1.0510    -3.0770    -1.9880 ca         1 48F       0.143900
     36 N3          -1.6370    -1.8660    -1.8320 nb         1 48F      -0.196000
     37 H2           2.9450     0.1780     1.3010 h1         1 48F       0.030200
     38 H3           1.4150    -0.5400     1.8020 h1         1 48F       0.030200
     39 H4           1.2440    -1.7210    -0.4200 h1         1 48F       0.041700
     40 H5           2.7040    -0.1680    -1.5430 ho         1 48F       0.543000
     41 H6           3.8430    -2.2520     1.0850 h1         1 48F       0.068700
     42 H7           4.3520    -3.4550    -2.0790 h1         1 48F       0.043700
     43 H8           5.1420    -2.8350    -0.6260 h1         1 48F       0.043700
     44 H9           6.1990    -4.7480    -1.4710 ho         1 48F       0.422000
     45 H10          1.2490    -3.4880     1.4780 ho         1 48F       0.475000
     46 H12         -1.7620     3.0630     1.0280 h1         1 48F       0.014700
     47 H13         -2.7510     4.4760     0.6340 h1         1 48F       0.014700
     48 H14         -2.2440     3.6640    -1.9090 h1         1 48F       0.096700
     49 H15         -3.3540     0.3130    -1.6920 h2         1 48F       0.099700
     50 H16         -3.8620     1.8250     0.9510 h1         1 48F       0.065700
     51 H17         -5.9900     1.3590     0.5390 ho         1 48F       0.494000
     52 H18         -4.5900     3.6960    -0.4850 h1         1 48F       0.039700
     53 H19         -5.3810     1.9590    -2.0920 ho         1 48F       0.499000
     54 H20         -2.5980     0.3430     2.0430 h5         1 48F       0.138800
     55 H21         -0.7740    -4.1280     2.1630 hn         1 48F       0.467500
     56 H22         -0.2120    -5.2620     1.0020 hn         1 48F       0.467500
     57 H23         -0.9100    -3.4230    -3.0100 h5         1 48F       0.026100
@<TRIPOS>BOND
     1     1     2 1   
     2     2     3 1   
     3     2     4 1   
     4     2    18 1   
     5     4     5 1   
     6     5     6 1   
     7     5     7 1   
     8     5    17 1   
     9     7     8 1   
    10     8     9 1   
    11     8    37 1   
    12     8    38 1   
    13     9    10 1   
    14     9    11 1   
    15     9    39 1   
    16    10    40 1   
    17    11    12 1   
    18    11    16 1   
    19    11    41 1   
    20    12    13 1   
    21    12    15 2   
    22    13    14 1   
    23    13    42 1   
    24    13    43 1   
    25    14    44 1   
    26    16    45 1   
    27    18    19 1   
    28    19    20 1   
    29    19    46 1   
    30    19    47 1   
    31    20    21 1   
    32    20    25 1   
    33    20    48 1   
    34    21    22 1   
    35    22    23 1   
    36    22    27 1   
    37    22    49 1   
    38    23    24 1   
    39    23    25 1   
    40    23    50 1   
    41    24    51 1   
    42    25    26 1   
    43    25    52 1   
    44    26    53 1   
    45    27    28 1   
    46    27    31 1   
    47    28    29 2   
    48    28    54 1   
    49    29    30 1   
    50    30    31 ar  
    51    30    32 ar  
    52    31    36 ar  
    53    32    33 1   
    54    32    34 ar  
    55    33    55 1   
    56    33    56 1   
    57    34    35 ar  
    58    35    36 ar  
    59    35    57 1   
@<TRIPOS>SUBSTRUCTURE
     1 48F         1 TEMP              0 ****  ****    0 ROOT
