@<TRIPOS>MOLECULE
48F
   57    59     1     0     0
SMALL
abcg2


@<TRIPOS>ATOM
      1 O1A         -0.3770     3.1970     2.0290 o          1 48F      -0.843000
      2 PA           0.1690     3.9860     0.8790 p5         1 48F       1.471800
      3 O2A          1.0110     5.1990     1.0950 o          1 48F      -0.843000
      4 O3A          0.9270     2.9730    -0.1800 os         1 48F      -0.696800
      5 PB           2.2830     2.1200     0.0720 p5         1 48F       1.471800
      6 O1B          3.2370     2.8350     0.9720 o          1 48F      -0.840000
      7 O5D          1.6310     0.8370     0.8460 os         1 48F      -0.597400
      8 C5D          2.4540    -0.2800     1.1380 c3         1 48F       0.199600
      9 C4D          2.4090    -1.3330     0.0370 c3         1 48F       0.136300
     10 O4D          3.0430    -0.9470    -1.1530 oh         1 48F      -0.766000
     11 C3D          3.1150    -2.6190     0.4980 c3         1 48F       0.077300
     12 C2D          3.1020    -3.6150    -0.6590 c          1 48F       0.563100
     13 C1D          4.3930    -3.7910    -1.4020 c3         1 48F       0.050600
     14 O1D          4.2090    -4.6250    -2.5050 oh         1 48F      -0.636000
     15 O2D          2.1010    -4.2390    -0.9180 o          1 48F      -0.515100
     16 O3D          2.5550    -3.1910     1.6460 oh         1 48F      -0.685000
     17 O2B          2.7520     1.6600    -1.2920 o          1 48F      -0.840000
     18 O5          -1.0440     4.4660    -0.1160 os         1 48F      -0.581400
     19 C5          -2.3510     3.9450    -0.0600 c3         1 48F       0.230600
     20 C4          -2.6590     3.0860    -1.2720 c5         1 48F       0.141300
     21 O4          -1.8480     1.9070    -1.2900 os         1 48F      -0.389000
     22 C1          -2.6330     0.7690    -1.0970 c5         1 48F       0.326300
     23 C2          -3.9630     1.2700    -0.5360 c5         1 48F       0.062300
     24 O2          -4.9700     0.3370    -0.7840 oh         1 48F      -0.703000
     25 C3          -4.1040     2.6010    -1.2750 c5         1 48F       0.099300
     26 O3          -4.5130     2.4010    -2.6030 oh         1 48F      -0.709000
     27 N9          -1.9550    -0.1580    -0.2250 na         1 48F      -0.287300
     28 C8          -1.3780     0.1010     0.9920 cc         1 48F       0.483700
     29 N7          -0.9400    -0.9690     1.5880 nd         1 48F      -0.566100
     30 C7          -1.2300    -1.9890     0.7210 ca         1 48F      -0.063600
     31 C9          -1.8630    -1.5060    -0.4160 ca         1 48F       0.113500
     32 C6          -0.9830    -3.3650     0.7490 ca         1 48F       0.386900
     33 N6          -0.2990    -3.9540     1.7660 nv         1 48F      -1.038900
     34 N1          -1.3850    -4.1070    -0.2790 nb         1 48F      -0.284000
     35 C10         -1.9890    -3.5120    -1.3060 ca         1 48F       0.143900
     36 N3          -2.2650    -2.2280    -1.4560 nb         1 48F      -0.196000
     37 H2           3.4940     0.0230     1.3250 h1         1 48F       0.030200
     38 H3           2.0730    -0.7190     2.0600 h1         1 48F       0.030200
     39 H4           1.3480    -1.5740    -0.1410 h1         1 48F       0.041700
     40 H5           2.9200     0.0260    -1.2990 ho         1 48F       0.543000
     41 H6           4.1520    -2.3660     0.7480 h1         1 48F       0.068700
     42 H7           4.7660    -2.7920    -1.6640 h1         1 48F       0.043700
     43 H8           5.1140    -4.1950    -0.6720 h1         1 48F       0.043700
     44 H9           5.0560    -4.7200    -2.9500 ho         1 48F       0.422000
     45 H10          1.6400    -3.4730     1.4730 ho         1 48F       0.475000
     46 H12         -2.5210     3.3880     0.8660 h1         1 48F       0.014700
     47 H13         -3.0470     4.7890    -0.0620 h1         1 48F       0.014700
     48 H14         -2.4480     3.6630    -2.1780 h1         1 48F       0.096700
     49 H15         -2.8040     0.2290    -2.0360 h2         1 48F       0.099700
     50 H16         -3.8520     1.4710     0.5380 h1         1 48F       0.065700
     51 H17         -5.7100     0.5140    -0.1940 ho         1 48F       0.494000
     52 H18         -4.7710     3.2950    -0.7470 h1         1 48F       0.039700
     53 H19         -5.2850     1.8240    -2.5940 ho         1 48F       0.499000
     54 H20         -1.2710     1.1080     1.3710 h5         1 48F       0.138800
     55 H21         -0.3500    -3.5010     2.6660 hn         1 48F       0.467500
     56 H22         -0.3630    -4.9600     1.8150 hn         1 48F       0.467500
     57 H23         -2.2940    -4.1670    -2.1150 h5         1 48F       0.026100
@<TRIPOS>BOND
     1     1     2 1   
     2     2     3 1   
     3     2     4 1   
     4     2    18 1   
     5     4     5 1   
     6     5     6 1   
     7     5     7 1   
     8     5    17 1   
     9     7     8 1   
    10     8     9 1   
    11     8    37 1   
    12     8    38 1   
    13     9    10 1   
    14     9    11 1   
    15     9    39 1   
    16    10    40 1   
    17    11    12 1   
    18    11    16 1   
    19    11    41 1   
    20    12    13 1   
    21    12    15 2   
    22    13    14 1   
    23    13    42 1   
    24    13    43 1   
    25    14    44 1   
    26    16    45 1   
    27    18    19 1   
    28    19    20 1   
    29    19    46 1   
    30    19    47 1   
    31    20    21 1   
    32    20    25 1   
    33    20    48 1   
    34    21    22 1   
    35    22    23 1   
    36    22    27 1   
    37    22    49 1   
    38    23    24 1   
    39    23    25 1   
    40    23    50 1   
    41    24    51 1   
    42    25    26 1   
    43    25    52 1   
    44    26    53 1   
    45    27    28 1   
    46    27    31 1   
    47    28    29 2   
    48    28    54 1   
    49    29    30 1   
    50    30    31 ar  
    51    30    32 ar  
    52    31    36 ar  
    53    32    33 1   
    54    32    34 ar  
    55    33    55 1   
    56    33    56 1   
    57    34    35 ar  
    58    35    36 ar  
    59    35    57 1   
@<TRIPOS>SUBSTRUCTURE
     1 48F         1 TEMP              0 ****  ****    0 ROOT
