@<TRIPOS>MOLECULE
48G
  179   181     1     0     0
SMALL
No Charge or Current Charge


@<TRIPOS>ATOM
      1 C4          -5.4310    -6.4420     3.5850 c6         1 48G       0.150300
      2 C5          -4.7170    -6.1240     2.2330 c6         1 48G       0.164300
      3 C6          -3.2170    -6.5390     2.2560 c3         1 48G       0.196600
      4 C3          -6.9260    -6.0260     3.4670 c6         1 48G       0.138300
      5 CAZ         26.9320     5.6020     0.0600 c3         1 48G      -0.088100
      6 CAY         25.5930     5.5670    -0.7010 c3         1 48G      -0.075400
      7 CAX         24.4260     5.0210     0.1510 c3         1 48G      -0.075400
      8 CAW         23.0840     4.9850    -0.6130 c3         1 48G      -0.074400
      9 CAV         21.9180     4.4390     0.2400 c3         1 48G      -0.074400
     10 CAU         20.5760     4.4030    -0.5240 c3         1 48G      -0.074400
     11 CAT         19.4100     3.8560     0.3280 c3         1 48G      -0.074400
     12 CAS         18.0680     3.8210    -0.4360 c3         1 48G      -0.074400
     13 CAR         16.9020     3.2740     0.4170 c3         1 48G      -0.074400
     14 CAQ         15.5600     3.2380    -0.3470 c3         1 48G      -0.074400
     15 CAP         14.3940     2.6900     0.5050 c3         1 48G      -0.074400
     16 CAO         13.0530     2.6530    -0.2590 c3         1 48G      -0.074400
     17 CAN         11.8870     2.1060     0.5930 c3         1 48G      -0.074400
     18 CAM         10.5450     2.0680    -0.1710 c3         1 48G      -0.074400
     19 CAL          9.3800     1.5200     0.6810 c3         1 48G      -0.074400
     20 CAK          8.0380     1.4810    -0.0840 c3         1 48G      -0.074400
     21 CAJ          6.8730     0.9320     0.7680 c3         1 48G      -0.074400
     22 CAI          5.5320     0.8910     0.0020 c3         1 48G      -0.073400
     23 CAH          4.3680     0.3390     0.8530 c3         1 48G      -0.074400
     24 CAG          3.0300     0.2910     0.0840 c3         1 48G      -0.075400
     25 CAF          1.8720    -0.2870     0.9260 c3         1 48G      -0.072400
     26 CAE          0.5560    -0.4130     0.1300 c3         1 48G      -0.076400
     27 CAD         -0.5640    -1.1210     0.9220 c3         1 48G      -0.073400
     28 CAC         -1.8120    -1.4080     0.0610 c3         1 48G      -0.069400
     29 CAB         -2.8620    -2.2940     0.7770 c3         1 48G      -0.159400
     30 OBA         -3.3880    -3.7770    -1.0550 o          1 48G      -0.642100
     31 NBG         -5.1300    -2.6720    -0.0910 ns         1 48G      -0.492900
     32 CBE         -6.2150    -3.1920    -0.9370 c3         1 48G       0.094700
     33 CBI         -7.5700    -2.4290    -0.7200 c3         1 48G       0.126300
     34 OBK         -8.4950    -2.8470    -1.7490 oh         1 48G      -0.639000
     35 CBM         -7.4630    -0.8570    -0.6950 c3         1 48G       0.132300
     36 OBO         -6.6810    -0.4250     0.4340 oh         1 48G      -0.668000
     37 CBQ         -8.8440    -0.1440    -0.6150 c3         1 48G      -0.107400
     38 CBS         -8.7760     1.4030    -0.6760 c3         1 48G      -0.074400
     39 CBV        -10.1710     2.0650    -0.6850 c3         1 48G      -0.075400
     40 CBW        -10.1090     3.6070    -0.7460 c3         1 48G      -0.074400
     41 CBX        -11.5050     4.2680    -0.7560 c3         1 48G      -0.074400
     42 CBY        -11.4430     5.8100    -0.8170 c3         1 48G      -0.074400
     43 CBZ        -12.8390     6.4710    -0.8270 c3         1 48G      -0.073400
     44 CCA        -12.7760     8.0130    -0.8880 c3         1 48G      -0.074400
     45 CCB        -14.1720     8.6740    -0.8980 c3         1 48G      -0.074400
     46 CCC        -14.1100    10.2160    -0.9580 c3         1 48G      -0.074400
     47 CCD        -15.5060    10.8770    -0.9690 c3         1 48G      -0.074400
     48 CCE        -15.4440    12.4200    -1.0280 c3         1 48G      -0.075400
     49 CCF        -16.8390    13.0810    -1.0390 c3         1 48G      -0.074400
     50 CCG        -16.7780    14.6190    -1.0980 c3         1 48G      -0.088100
     51 CBB         -6.3750    -4.7340    -0.7860 c3         1 48G       0.147600
     52 O1          -6.8270    -5.0400     0.5490 os         1 48G      -0.473000
     53 C1          -6.7570    -6.4270     0.9330 c6         1 48G       0.359300
     54 O5          -5.3760    -6.8070     1.1300 os         1 48G      -0.450000
     55 C2          -7.6020    -6.6880     2.2260 c6         1 48G       0.114300
     56 O2          -8.9590    -6.2010     2.0880 oh         1 48G      -0.712000
     57 O3          -7.6440    -6.3840     4.6640 oh         1 48G      -0.672000
     58 O4          -5.3460    -7.8370     3.9400 oh         1 48G      -0.711000
     59 O6          -2.5110    -5.8440     1.2070 os         1 48G      -0.462100
     60 CCH         -1.1470    -5.8920     1.2110 c          1 48G       0.643100
     61 OCT         -0.4760    -6.5250     2.0150 o          1 48G      -0.529000
     62 NCS         -0.6660    -5.0490     0.2290 ns         1 48G      -0.156000
     63 CCR          0.6430    -4.5550    -0.0370 ca         1 48G       0.004000
     64 CCI          0.9320    -3.9400    -1.2850 ca         1 48G      -0.059000
     65 CCJ         -0.0360    -3.8600    -2.3140 ca         1 48G      -0.088000
     66 CCK          0.2660    -3.2300    -3.5330 ca         1 48G      -0.115000
     67 CCL          1.5380    -2.6780    -3.7470 ca         1 48G      -0.103000
     68 CCM          2.5130    -2.7600    -2.7410 ca         1 48G      -0.108000
     69 CCN          2.2170    -3.3880    -1.5160 ca         1 48G      -0.020000
     70 CCO          3.2070    -3.4560    -0.5220 ca         1 48G      -0.127000
     71 CCP          2.9250    -4.0620     0.7090 ca         1 48G      -0.082000
     72 CCQ          1.6520    -4.6010     0.9520 ca         1 48G      -0.140000
     73 H1          -4.9670    -5.8290     4.3720 h1         1 48G       0.051700
     74 H2          -4.7580    -5.0390     2.0600 h1         1 48G       0.061700
     75 H3          -2.8050    -6.2650     3.2360 h1         1 48G       0.069200
     76 H4          -3.1320    -7.6280     2.1430 h1         1 48G       0.069200
     77 H5          -6.9580    -4.9340     3.3290 h1         1 48G       0.063700
     78 H6          26.8580     6.2450     0.9460 hc         1 48G       0.031367
     79 H7          27.2200     4.5950     0.3850 hc         1 48G       0.031367
     80 H8          27.7270     5.9960    -0.5830 hc         1 48G       0.031367
     81 H9          25.3500     6.5810    -1.0430 hc         1 48G       0.036700
     82 H10         25.7100     4.9460    -1.5980 hc         1 48G       0.036700
     83 H11         24.6740     4.0070     0.4920 hc         1 48G       0.036700
     84 H12         24.3140     5.6420     1.0480 hc         1 48G       0.036700
     85 H13         22.8370     5.9980    -0.9540 hc         1 48G       0.036700
     86 H14         23.1970     4.3630    -1.5100 hc         1 48G       0.036700
     87 H15         22.1650     3.4250     0.5810 hc         1 48G       0.036700
     88 H16         21.8060     5.0600     1.1370 hc         1 48G       0.036700
     89 H17         20.3290     5.4160    -0.8650 hc         1 48G       0.036700
     90 H18         20.6890     3.7820    -1.4210 hc         1 48G       0.036700
     91 H19         19.6570     2.8430     0.6690 hc         1 48G       0.036700
     92 H20         19.2970     4.4780     1.2250 hc         1 48G       0.036700
     93 H21         17.8210     4.8340    -0.7770 hc         1 48G       0.037200
     94 H22         18.1810     3.1990    -1.3330 hc         1 48G       0.037200
     95 H23         17.1500     2.2610     0.7580 hc         1 48G       0.037200
     96 H24         16.7890     3.8960     1.3140 hc         1 48G       0.037200
     97 H25         15.3130     4.2510    -0.6880 hc         1 48G       0.037200
     98 H26         15.6730     2.6160    -1.2440 hc         1 48G       0.037200
     99 H27         14.6420     1.6780     0.8460 hc         1 48G       0.037200
    100 H28         14.2810     3.3120     1.4020 hc         1 48G       0.037200
    101 H29         12.8050     3.6660    -0.6000 hc         1 48G       0.037200
    102 H30         13.1660     2.0320    -1.1560 hc         1 48G       0.037200
    103 H31         12.1350     1.0930     0.9350 hc         1 48G       0.037200
    104 H32         11.7730     2.7280     1.4900 hc         1 48G       0.037200
    105 H33         10.2970     3.0810    -0.5130 hc         1 48G       0.037200
    106 H34         10.6590     1.4460    -1.0680 hc         1 48G       0.037200
    107 H35          9.6290     0.5080     1.0230 hc         1 48G       0.037700
    108 H36          9.2650     2.1420     1.5770 hc         1 48G       0.037700
    109 H37          7.7890     2.4940    -0.4260 hc         1 48G       0.037200
    110 H38          8.1530     0.8590    -0.9810 hc         1 48G       0.037200
    111 H39          7.1230    -0.0800     1.1100 hc         1 48G       0.036700
    112 H40          6.7570     1.5540     1.6640 hc         1 48G       0.036700
    113 H41          5.2810     1.9030    -0.3390 hc         1 48G       0.036700
    114 H42          5.6490     0.2700    -0.8940 hc         1 48G       0.036700
    115 H43          4.6220    -0.6720     1.1960 hc         1 48G       0.036200
    116 H44          4.2470     0.9620     1.7490 hc         1 48G       0.036200
    117 H45          2.7650     1.3010    -0.2500 hc         1 48G       0.039200
    118 H46          3.1590    -0.3210    -0.8170 hc         1 48G       0.039200
    119 H47          2.1620    -1.2770     1.2970 hc         1 48G       0.036200
    120 H48          1.7060     0.3480     1.8050 hc         1 48G       0.036200
    121 H49          0.2150     0.5840    -0.1750 hc         1 48G       0.043700
    122 H50          0.7530    -0.9770    -0.7900 hc         1 48G       0.043700
    123 H51         -0.1730    -2.0690     1.3120 hc         1 48G       0.036700
    124 H52         -0.8470    -0.5100     1.7890 hc         1 48G       0.036700
    125 H53         -2.2780    -0.4650    -0.2530 hc         1 48G       0.053200
    126 H54         -1.4840    -1.9130    -0.8550 hc         1 48G       0.053200
    127 H55         -2.3420    -3.0780     1.3370 hc         1 48G       0.059200
    128 H56         -3.4330    -1.6890     1.4900 hc         1 48G       0.059200
    129 H57         -5.3730    -1.9490     0.5790 hn         1 48G       0.336500
    130 H58         -5.9050    -3.0050    -1.9740 h1         1 48G       0.059700
    131 H59         -7.9610    -2.7290     0.2620 h1         1 48G       0.095700
    132 H60         -8.1940    -2.4620    -2.6000 ho         1 48G       0.439000
    133 H61         -6.9720    -0.5400    -1.6270 h1         1 48G       0.074700
    134 H62         -6.7240     0.5550     0.4560 ho         1 48G       0.448000
    135 H63         -9.4750    -0.4830    -1.4440 hc         1 48G       0.053200
    136 H64         -9.3540    -0.4480     0.3080 hc         1 48G       0.053200
    137 H65         -8.2130     1.7870     0.1830 hc         1 48G       0.044200
    138 H66         -8.2300     1.7040    -1.5800 hc         1 48G       0.044200
    139 H67        -10.7410     1.6940    -1.5470 hc         1 48G       0.038200
    140 H68        -10.7200     1.7620     0.2150 hc         1 48G       0.038200
    141 H69         -9.5410     3.9790     0.1160 hc         1 48G       0.038700
    142 H70         -9.5600     3.9100    -1.6460 hc         1 48G       0.038700
    143 H71        -12.0730     3.8970    -1.6190 hc         1 48G       0.037700
    144 H72        -12.0540     3.9650     0.1440 hc         1 48G       0.037700
    145 H73        -10.8750     6.1820     0.0450 hc         1 48G       0.037700
    146 H74        -10.8940     6.1130    -1.7170 hc         1 48G       0.037700
    147 H75        -13.4070     6.1000    -1.6900 hc         1 48G       0.037200
    148 H76        -13.3880     6.1680     0.0730 hc         1 48G       0.037200
    149 H77        -12.2090     8.3850    -0.0250 hc         1 48G       0.037700
    150 H78        -12.2270     8.3170    -1.7880 hc         1 48G       0.037700
    151 H79        -14.7400     8.3030    -1.7610 hc         1 48G       0.037200
    152 H80        -14.7210     8.3710     0.0020 hc         1 48G       0.037200
    153 H81        -13.5420    10.5880    -0.0960 hc         1 48G       0.036700
    154 H82        -13.5610    10.5200    -1.8580 hc         1 48G       0.036700
    155 H83        -16.0740    10.5060    -1.8310 hc         1 48G       0.036700
    156 H84        -16.0550    10.5740    -0.0690 hc         1 48G       0.036700
    157 H85        -14.8760    12.7910    -0.1660 hc         1 48G       0.036700
    158 H86        -14.8950    12.7230    -1.9280 hc         1 48G       0.036700
    159 H87        -17.4090    12.7140    -1.9010 hc         1 48G       0.036700
    160 H88        -17.3910    12.7810    -0.1390 hc         1 48G       0.036700
    161 H89        -16.2430    15.0200    -0.2280 hc         1 48G       0.031367
    162 H90        -16.2620    14.9520    -2.0070 hc         1 48G       0.031367
    163 H91        -17.7890    15.0420    -1.1040 hc         1 48G       0.031367
    164 H92         -7.0950    -5.1050    -1.5270 h1         1 48G       0.056200
    165 H93         -5.4170    -5.2250    -0.9940 h1         1 48G       0.056200
    166 H94         -7.1820    -7.0400     0.1230 h2         1 48G       0.070700
    167 H95         -7.6190    -7.7770     2.3850 h1         1 48G       0.065700
    168 H96         -8.8990    -5.3870     1.5310 ho         1 48G       0.512000
    169 H97         -8.5970    -6.3250     4.4180 ho         1 48G       0.468000
    170 H98         -6.0810    -7.9690     4.5870 ho         1 48G       0.523000
    171 H99         -1.3940    -4.6490    -0.3510 hn         1 48G       0.198000
    172 H100        -1.0290    -4.2820    -2.1880 ha         1 48G       0.128000
    173 H101        -0.4880    -3.1720    -4.3140 ha         1 48G       0.113000
    174 H102         1.7690    -2.1910    -4.6910 ha         1 48G       0.111000
    175 H103         3.4980    -2.3330    -2.9140 ha         1 48G       0.111000
    176 H104         4.1920    -3.0300    -0.6960 ha         1 48G       0.114000
    177 H105         3.6890    -4.1020     1.4820 ha         1 48G       0.114000
    178 H106         1.4610    -5.0330     1.9290 ha         1 48G       0.135000
    179 CAA         -3.7990    -2.9870    -0.2180 c          1 48G       0.606100
@<TRIPOS>BOND
     1     1     2 1   
     2     1     4 1   
     3     1    58 1   
     4     1    73 1   
     5     2     3 1   
     6     2    54 1   
     7     2    74 1   
     8     3    59 1   
     9     3    75 1   
    10     3    76 1   
    11     4    55 1   
    12     4    57 1   
    13     4    77 1   
    14     5     6 1   
    15     5    78 1   
    16     5    79 1   
    17     5    80 1   
    18     6     7 1   
    19     6    81 1   
    20     6    82 1   
    21     7     8 1   
    22     7    83 1   
    23     7    84 1   
    24     8     9 1   
    25     8    85 1   
    26     8    86 1   
    27     9    10 1   
    28     9    87 1   
    29     9    88 1   
    30    10    11 1   
    31    10    89 1   
    32    10    90 1   
    33    11    12 1   
    34    11    91 1   
    35    11    92 1   
    36    12    13 1   
    37    12    93 1   
    38    12    94 1   
    39    13    14 1   
    40    13    95 1   
    41    13    96 1   
    42    14    15 1   
    43    14    97 1   
    44    14    98 1   
    45    15    16 1   
    46    15    99 1   
    47    15   100 1   
    48    16    17 1   
    49    16   101 1   
    50    16   102 1   
    51    17    18 1   
    52    17   103 1   
    53    17   104 1   
    54    18    19 1   
    55    18   105 1   
    56    18   106 1   
    57    19    20 1   
    58    19   107 1   
    59    19   108 1   
    60    20    21 1   
    61    20   109 1   
    62    20   110 1   
    63    21    22 1   
    64    21   111 1   
    65    21   112 1   
    66    22    23 1   
    67    22   113 1   
    68    22   114 1   
    69    23    24 1   
    70    23   115 1   
    71    23   116 1   
    72    24    25 1   
    73    24   117 1   
    74    24   118 1   
    75    25    26 1   
    76    25   119 1   
    77    25   120 1   
    78    26    27 1   
    79    26   121 1   
    80    26   122 1   
    81    27    28 1   
    82    27   123 1   
    83    27   124 1   
    84    28    29 1   
    85    28   125 1   
    86    28   126 1   
    87    29   127 1   
    88    29   128 1   
    89    29   179 1   
    90    30   179 2   
    91    31    32 1   
    92    31   129 1   
    93    31   179 1   
    94    32    33 1   
    95    32    51 1   
    96    32   130 1   
    97    33    34 1   
    98    33    35 1   
    99    33   131 1   
   100    34   132 1   
   101    35    36 1   
   102    35    37 1   
   103    35   133 1   
   104    36   134 1   
   105    37    38 1   
   106    37   135 1   
   107    37   136 1   
   108    38    39 1   
   109    38   137 1   
   110    38   138 1   
   111    39    40 1   
   112    39   139 1   
   113    39   140 1   
   114    40    41 1   
   115    40   141 1   
   116    40   142 1   
   117    41    42 1   
   118    41   143 1   
   119    41   144 1   
   120    42    43 1   
   121    42   145 1   
   122    42   146 1   
   123    43    44 1   
   124    43   147 1   
   125    43   148 1   
   126    44    45 1   
   127    44   149 1   
   128    44   150 1   
   129    45    46 1   
   130    45   151 1   
   131    45   152 1   
   132    46    47 1   
   133    46   153 1   
   134    46   154 1   
   135    47    48 1   
   136    47   155 1   
   137    47   156 1   
   138    48    49 1   
   139    48   157 1   
   140    48   158 1   
   141    49    50 1   
   142    49   159 1   
   143    49   160 1   
   144    50   161 1   
   145    50   162 1   
   146    50   163 1   
   147    51    52 1   
   148    51   164 1   
   149    51   165 1   
   150    52    53 1   
   151    53    54 1   
   152    53    55 1   
   153    53   166 1   
   154    55    56 1   
   155    55   167 1   
   156    56   168 1   
   157    57   169 1   
   158    58   170 1   
   159    59    60 1   
   160    60    61 2   
   161    60    62 1   
   162    62    63 1   
   163    62   171 1   
   164    63    64 ar  
   165    63    72 ar  
   166    64    65 ar  
   167    64    69 ar  
   168    65    66 ar  
   169    65   172 1   
   170    66    67 ar  
   171    66   173 1   
   172    67    68 ar  
   173    67   174 1   
   174    68    69 ar  
   175    68   175 1   
   176    69    70 ar  
   177    70    71 ar  
   178    70   176 1   
   179    71    72 ar  
   180    71   177 1   
   181    72   178 1   
@<TRIPOS>SUBSTRUCTURE
     1 48G         1 TEMP              0 ****  ****    0 ROOT
