@<TRIPOS>MOLECULE
48G
  179   181     1     0     0
SMALL
abcg2


@<TRIPOS>ATOM
      1 C4          -5.1920    -5.5500     3.8860 c6         1 48G       0.150300
      2 C5          -4.5990    -5.4560     2.4880 c6         1 48G       0.164300
      3 C6          -3.1490    -5.8780     2.4410 c3         1 48G       0.196600
      4 C3          -6.6690    -5.1700     3.8100 c6         1 48G       0.138300
      5 CAZ         25.9030     7.6780     0.4920 c3         1 48G      -0.088100
      6 CAY         24.8810     6.8480    -0.2720 c3         1 48G      -0.075400
      7 CAX         23.6100     6.5930     0.5280 c3         1 48G      -0.075400
      8 CAW         22.5770     5.7630    -0.2230 c3         1 48G      -0.074400
      9 CAV         21.3090     5.5090     0.5820 c3         1 48G      -0.074400
     10 CAU         20.2740     4.6810    -0.1690 c3         1 48G      -0.074400
     11 CAT         19.0050     4.4290     0.6350 c3         1 48G      -0.074400
     12 CAS         17.9660     3.6090    -0.1190 c3         1 48G      -0.074400
     13 CAR         16.6940     3.3640     0.6830 c3         1 48G      -0.074400
     14 CAQ         15.6470     2.5610    -0.0780 c3         1 48G      -0.074400
     15 CAP         14.3690     2.3290     0.7190 c3         1 48G      -0.074400
     16 CAO         13.3030     1.5710    -0.0610 c3         1 48G      -0.074400
     17 CAN         12.0150     1.3570     0.7260 c3         1 48G      -0.074400
     18 CAM         10.9060     0.7160    -0.1000 c3         1 48G      -0.074400
     19 CAL          9.6110     0.5180     0.6780 c3         1 48G      -0.074400
     20 CAK          8.4380     0.0960    -0.2000 c3         1 48G      -0.074400
     21 CAJ          7.1450    -0.0940     0.5840 c3         1 48G      -0.074400
     22 CAI          5.9270    -0.3390    -0.2970 c3         1 48G      -0.073400
     23 CAH          4.6430    -0.5320     0.5000 c3         1 48G      -0.074400
     24 CAG          3.3990    -0.6600    -0.3690 c3         1 48G      -0.075400
     25 CAF          2.1290    -0.8830     0.4410 c3         1 48G      -0.072400
     26 CAE          0.8780    -1.0180    -0.4160 c3         1 48G      -0.076400
     27 CAD         -0.3720    -1.2980     0.4040 c3         1 48G      -0.073400
     28 CAC         -1.6060    -1.5330    -0.4550 c3         1 48G      -0.069400
     29 CAB         -2.8220    -1.9460     0.3690 c3         1 48G      -0.159400
     30 OBA         -3.5880    -3.4670    -1.3240 o          1 48G      -0.642100
     31 NBG         -5.1470    -2.4200    -0.0700 ns         1 48G      -0.492900
     32 CBE         -6.3090    -2.9820    -0.7330 c3         1 48G       0.094700
     33 CBI         -7.5910    -2.1990    -0.3740 c3         1 48G       0.126300
     34 OBK         -8.6610    -2.7330    -1.1150 oh         1 48G      -0.639000
     35 CBM         -7.4690    -0.6690    -0.5480 c3         1 48G       0.132300
     36 OBO         -6.6050    -0.1350     0.4470 oh         1 48G      -0.668000
     37 CBQ         -8.8260     0.0290    -0.5090 c3         1 48G      -0.107400
     38 CBS         -8.7390     1.5360    -0.7190 c3         1 48G      -0.074400
     39 CBV        -10.0910     2.2250    -0.5720 c3         1 48G      -0.075400
     40 CBW        -10.0210     3.7270    -0.8150 c3         1 48G      -0.074400
     41 CBX        -11.3500     4.4390    -0.5960 c3         1 48G      -0.074400
     42 CBY        -11.2750     5.9380    -0.8580 c3         1 48G      -0.074400
     43 CBZ        -12.5880     6.6660    -0.6000 c3         1 48G      -0.073400
     44 CCA        -12.5070     8.1620    -0.8750 c3         1 48G      -0.074400
     45 CCB        -13.8090     8.9010    -0.5930 c3         1 48G      -0.074400
     46 CCC        -13.7230    10.3960    -0.8760 c3         1 48G      -0.074400
     47 CCD        -15.0170    11.1430    -0.5800 c3         1 48G      -0.074400
     48 CCE        -14.9270    12.6370    -0.8660 c3         1 48G      -0.075400
     49 CCF        -16.2150    13.3910    -0.5580 c3         1 48G      -0.074400
     50 CCG        -16.1090    14.8820    -0.8480 c3         1 48G      -0.088100
     51 CBB         -6.4660    -4.4670    -0.4310 c3         1 48G       0.147600
     52 O1          -6.8090    -4.6270     0.9310 os         1 48G      -0.473000
     53 C1          -6.6580    -5.9150     1.4170 c6         1 48G       0.359300
     54 O5          -5.3090    -6.2680     1.5690 os         1 48G      -0.450000
     55 C2          -7.3760    -6.0250     2.7660 c6         1 48G       0.114300
     56 O2          -8.7170    -5.6090     2.6980 oh         1 48G      -0.712000
     57 O3          -7.2230    -5.3480     5.0930 oh         1 48G      -0.672000
     58 O4          -5.0070    -6.8550     4.3770 oh         1 48G      -0.711000
     59 O6          -2.6570    -5.4430     1.1760 os         1 48G      -0.462100
     60 CCH         -1.3510    -5.5530     0.9360 c          1 48G       0.643100
     61 OCT         -0.5720    -6.1260     1.6640 o          1 48G      -0.529000
     62 NCS         -1.0590    -4.9310    -0.2350 ns         1 48G      -0.156000
     63 CCR          0.2200    -4.7470    -0.7740 ca         1 48G       0.004000
     64 CCI          0.3370    -4.6580    -2.1940 ca         1 48G      -0.059000
     65 CCJ         -0.7620    -4.8350    -3.0690 ca         1 48G      -0.088000
     66 CCK         -0.6110    -4.7130    -4.4240 ca         1 48G      -0.115000
     67 CCL          0.6470    -4.4070    -4.9790 ca         1 48G      -0.103000
     68 CCM          1.7320    -4.2480    -4.1620 ca         1 48G      -0.108000
     69 CCN          1.6110    -4.3750    -2.7570 ca         1 48G      -0.020000
     70 CCO          2.7370    -4.2370    -1.9150 ca         1 48G      -0.127000
     71 CCP          2.5950    -4.3610    -0.5620 ca         1 48G      -0.082000
     72 CCQ          1.3360    -4.6000     0.0150 ca         1 48G      -0.140000
     73 H1          -4.6760    -4.8130     4.5190 h1         1 48G       0.051700
     74 H2          -4.6520    -4.4000     2.1920 h1         1 48G       0.061700
     75 H3          -2.5980    -5.3920     3.2510 h1         1 48G       0.069200
     76 H4          -3.0410    -6.9590     2.5490 h1         1 48G       0.069200
     77 H5          -6.7280    -4.1150     3.5030 h1         1 48G       0.063700
     78 H6          25.4970     8.6570     0.7540 hc         1 48G       0.031367
     79 H7          26.1920     7.1840     1.4220 hc         1 48G       0.031367
     80 H8          26.8090     7.8410    -0.0910 hc         1 48G       0.031367
     81 H9          24.6230     7.3530    -1.2090 hc         1 48G       0.036700
     82 H10         25.3260     5.8900    -0.5590 hc         1 48G       0.036700
     83 H11         23.8680     6.0890     1.4660 hc         1 48G       0.036700
     84 H12         23.1650     7.5530     0.8160 hc         1 48G       0.036700
     85 H13         22.3170     6.2690    -1.1590 hc         1 48G       0.036700
     86 H14         23.0230     4.8050    -0.5120 hc         1 48G       0.036700
     87 H15         21.5690     5.0020     1.5180 hc         1 48G       0.036700
     88 H16         20.8650     6.4680     0.8720 hc         1 48G       0.036700
     89 H17         20.0150     5.1880    -1.1060 hc         1 48G       0.036700
     90 H18         20.7170     3.7210    -0.4590 hc         1 48G       0.036700
     91 H19         19.2620     3.9190     1.5700 hc         1 48G       0.036700
     92 H20         18.5650     5.3890     0.9280 hc         1 48G       0.036700
     93 H21         17.7120     4.1190    -1.0540 hc         1 48G       0.037200
     94 H22         18.4040     2.6470    -0.4090 hc         1 48G       0.037200
     95 H23         16.9460     2.8450     1.6150 hc         1 48G       0.037200
     96 H24         16.2640     4.3270     0.9820 hc         1 48G       0.037200
     97 H25         15.4010     3.0810    -1.0100 hc         1 48G       0.037200
     98 H26         16.0720     1.5960    -0.3740 hc         1 48G       0.037200
     99 H27         14.6080     1.7860     1.6400 hc         1 48G       0.037200
    100 H28         13.9610     3.2960     1.0370 hc         1 48G       0.037200
    101 H29         13.0720     2.1210    -0.9810 hc         1 48G       0.037200
    102 H30         13.7010     0.6030    -0.3820 hc         1 48G       0.037200
    103 H31         12.2240     0.7440     1.6100 hc         1 48G       0.037200
    104 H32         11.6610     2.3220     1.1050 hc         1 48G       0.037200
    105 H33         10.7070     1.3470    -0.9730 hc         1 48G       0.037200
    106 H34         11.2490    -0.2460    -0.4960 hc         1 48G       0.037200
    107 H35          9.7640    -0.2220     1.4700 hc         1 48G       0.037700
    108 H36          9.3500     1.4540     1.1840 hc         1 48G       0.037700
    109 H37          8.2850     0.8560    -0.9740 hc         1 48G       0.037200
    110 H38          8.6850    -0.8310    -0.7290 hc         1 48G       0.037200
    111 H39          7.2630    -0.9240     1.2880 hc         1 48G       0.036700
    112 H40          6.9650     0.7960     1.1980 hc         1 48G       0.036700
    113 H41          5.8040     0.5070    -0.9840 hc         1 48G       0.036700
    114 H42          6.0970    -1.2170    -0.9300 hc         1 48G       0.036700
    115 H43          4.7400    -1.4230     1.1310 hc         1 48G       0.036200
    116 H44          4.5150     0.3110     1.1890 hc         1 48G       0.036200
    117 H45          3.2900     0.2420    -0.9820 hc         1 48G       0.039200
    118 H46          3.5250    -1.4910    -1.0720 hc         1 48G       0.039200
    119 H47          2.2450    -1.7900     1.0450 hc         1 48G       0.036200
    120 H48          1.9990    -0.0590     1.1520 hc         1 48G       0.036200
    121 H49          0.7370    -0.1060    -1.0080 hc         1 48G       0.043700
    122 H50          1.0240    -1.8310    -1.1360 hc         1 48G       0.043700
    123 H51         -0.1980    -2.1860     1.0220 hc         1 48G       0.036700
    124 H52         -0.5500    -0.4740     1.1030 hc         1 48G       0.036700
    125 H53         -1.8430    -0.6300    -1.0260 hc         1 48G       0.053200
    126 H54         -1.3780    -2.3020    -1.1960 hc         1 48G       0.053200
    127 H55         -2.5120    -2.6350     1.1620 hc         1 48G       0.059200
    128 H56         -3.2470    -1.0800     0.8820 hc         1 48G       0.059200
    129 H57         -5.3120    -1.6590     0.5730 hn         1 48G       0.336500
    130 H58         -6.1630    -2.8960    -1.8180 h1         1 48G       0.059700
    131 H59         -7.8410    -2.3850     0.6760 h1         1 48G       0.095700
    132 H60         -8.4980    -2.5810    -2.0530 ho         1 48G       0.439000
    133 H61         -6.9850    -0.4510    -1.5080 h1         1 48G       0.074700
    134 H62         -7.0920    -0.0960     1.2790 ho         1 48G       0.448000
    135 H63         -9.4800    -0.3990    -1.2710 hc         1 48G       0.053200
    136 H64         -9.3060    -0.1860     0.4550 hc         1 48G       0.053200
    137 H65         -8.0370     1.9790    -0.0080 hc         1 48G       0.044200
    138 H66         -8.3330     1.7380    -1.7160 hc         1 48G       0.044200
    139 H67        -10.8120     1.7770    -1.2650 hc         1 48G       0.038200
    140 H68        -10.4820     2.0370     0.4340 hc         1 48G       0.038200
    141 H69         -9.2640     4.1650    -0.1550 hc         1 48G       0.038700
    142 H70         -9.6720     3.9120    -1.8370 hc         1 48G       0.038700
    143 H71        -12.1150     3.9940    -1.2420 hc         1 48G       0.037700
    144 H72        -11.6870     4.2670     0.4320 hc         1 48G       0.037700
    145 H73        -10.4890     6.3760    -0.2320 hc         1 48G       0.037700
    146 H74        -10.9620     6.1070    -1.8950 hc         1 48G       0.037700
    147 H75        -13.3780     6.2240    -1.2170 hc         1 48G       0.037200
    148 H76        -12.8930     6.5050     0.4400 hc         1 48G       0.037200
    149 H77        -11.7040     8.5990    -0.2700 hc         1 48G       0.037700
    150 H78        -12.2170     8.3220    -1.9190 hc         1 48G       0.037700
    151 H79        -14.6140     8.4630    -1.1930 hc         1 48G       0.037200
    152 H80        -14.0950     8.7470     0.4530 hc         1 48G       0.037200
    153 H81        -12.9100    10.8310    -0.2840 hc         1 48G       0.036700
    154 H82        -13.4460    10.5500    -1.9250 hc         1 48G       0.036700
    155 H83        -15.8320    10.7090    -1.1690 hc         1 48G       0.036700
    156 H84        -15.2910    10.9920     0.4710 hc         1 48G       0.036700
    157 H85        -14.1070    13.0700    -0.2820 hc         1 48G       0.036700
    158 H86        -14.6590    12.7890    -1.9170 hc         1 48G       0.036700
    159 H87        -17.0350    12.9600    -1.1410 hc         1 48G       0.036700
    160 H88        -16.4790    13.2400     0.4930 hc         1 48G       0.036700
    161 H89        -15.3150    15.3410    -0.2550 hc         1 48G       0.031367
    162 H90        -15.8780    15.0630    -1.8990 hc         1 48G       0.031367
    163 H91        -17.0380    15.4050    -0.6170 hc         1 48G       0.031367
    164 H92         -7.2450    -4.8920    -1.0730 h1         1 48G       0.056200
    165 H93         -5.5300    -4.9780    -0.6680 h1         1 48G       0.056200
    166 H94         -7.0690    -6.6530     0.7140 h2         1 48G       0.070700
    167 H95         -7.3070    -7.0750     3.0760 h1         1 48G       0.065700
    168 H96         -9.2480    -6.3300     2.3470 ho         1 48G       0.512000
    169 H97         -8.1820    -5.2920     5.0180 ho         1 48G       0.468000
    170 H98         -5.5260    -6.9420     5.1840 ho         1 48G       0.523000
    171 H99         -1.8430    -4.4910    -0.7120 hn         1 48G       0.198000
    172 H100        -1.7380    -5.0910    -2.6800 ha         1 48G       0.128000
    173 H101        -1.4630    -4.8580    -5.0740 ha         1 48G       0.113000
    174 H102         0.7530    -4.3080    -6.0510 ha         1 48G       0.111000
    175 H103         2.7050    -4.0230    -4.5810 ha         1 48G       0.111000
    176 H104         3.7050    -4.0290    -2.3530 ha         1 48G       0.114000
    177 H105         3.4510    -4.2480     0.0900 ha         1 48G       0.114000
    178 H106         1.2570    -4.6400     1.0900 ha         1 48G       0.135000
    179 CAA         -3.8830    -2.6720    -0.4320 c          1 48G       0.606100
@<TRIPOS>BOND
     1     1     2 1   
     2     1     4 1   
     3     1    58 1   
     4     1    73 1   
     5     2     3 1   
     6     2    54 1   
     7     2    74 1   
     8     3    59 1   
     9     3    75 1   
    10     3    76 1   
    11     4    55 1   
    12     4    57 1   
    13     4    77 1   
    14     5     6 1   
    15     5    78 1   
    16     5    79 1   
    17     5    80 1   
    18     6     7 1   
    19     6    81 1   
    20     6    82 1   
    21     7     8 1   
    22     7    83 1   
    23     7    84 1   
    24     8     9 1   
    25     8    85 1   
    26     8    86 1   
    27     9    10 1   
    28     9    87 1   
    29     9    88 1   
    30    10    11 1   
    31    10    89 1   
    32    10    90 1   
    33    11    12 1   
    34    11    91 1   
    35    11    92 1   
    36    12    13 1   
    37    12    93 1   
    38    12    94 1   
    39    13    14 1   
    40    13    95 1   
    41    13    96 1   
    42    14    15 1   
    43    14    97 1   
    44    14    98 1   
    45    15    16 1   
    46    15    99 1   
    47    15   100 1   
    48    16    17 1   
    49    16   101 1   
    50    16   102 1   
    51    17    18 1   
    52    17   103 1   
    53    17   104 1   
    54    18    19 1   
    55    18   105 1   
    56    18   106 1   
    57    19    20 1   
    58    19   107 1   
    59    19   108 1   
    60    20    21 1   
    61    20   109 1   
    62    20   110 1   
    63    21    22 1   
    64    21   111 1   
    65    21   112 1   
    66    22    23 1   
    67    22   113 1   
    68    22   114 1   
    69    23    24 1   
    70    23   115 1   
    71    23   116 1   
    72    24    25 1   
    73    24   117 1   
    74    24   118 1   
    75    25    26 1   
    76    25   119 1   
    77    25   120 1   
    78    26    27 1   
    79    26   121 1   
    80    26   122 1   
    81    27    28 1   
    82    27   123 1   
    83    27   124 1   
    84    28    29 1   
    85    28   125 1   
    86    28   126 1   
    87    29   127 1   
    88    29   128 1   
    89    29   179 1   
    90    30   179 2   
    91    31    32 1   
    92    31   129 1   
    93    31   179 1   
    94    32    33 1   
    95    32    51 1   
    96    32   130 1   
    97    33    34 1   
    98    33    35 1   
    99    33   131 1   
   100    34   132 1   
   101    35    36 1   
   102    35    37 1   
   103    35   133 1   
   104    36   134 1   
   105    37    38 1   
   106    37   135 1   
   107    37   136 1   
   108    38    39 1   
   109    38   137 1   
   110    38   138 1   
   111    39    40 1   
   112    39   139 1   
   113    39   140 1   
   114    40    41 1   
   115    40   141 1   
   116    40   142 1   
   117    41    42 1   
   118    41   143 1   
   119    41   144 1   
   120    42    43 1   
   121    42   145 1   
   122    42   146 1   
   123    43    44 1   
   124    43   147 1   
   125    43   148 1   
   126    44    45 1   
   127    44   149 1   
   128    44   150 1   
   129    45    46 1   
   130    45   151 1   
   131    45   152 1   
   132    46    47 1   
   133    46   153 1   
   134    46   154 1   
   135    47    48 1   
   136    47   155 1   
   137    47   156 1   
   138    48    49 1   
   139    48   157 1   
   140    48   158 1   
   141    49    50 1   
   142    49   159 1   
   143    49   160 1   
   144    50   161 1   
   145    50   162 1   
   146    50   163 1   
   147    51    52 1   
   148    51   164 1   
   149    51   165 1   
   150    52    53 1   
   151    53    54 1   
   152    53    55 1   
   153    53   166 1   
   154    55    56 1   
   155    55   167 1   
   156    56   168 1   
   157    57   169 1   
   158    58   170 1   
   159    59    60 1   
   160    60    61 2   
   161    60    62 1   
   162    62    63 1   
   163    62   171 1   
   164    63    64 ar  
   165    63    72 ar  
   166    64    65 ar  
   167    64    69 ar  
   168    65    66 ar  
   169    65   172 1   
   170    66    67 ar  
   171    66   173 1   
   172    67    68 ar  
   173    67   174 1   
   174    68    69 ar  
   175    68   175 1   
   176    69    70 ar  
   177    70    71 ar  
   178    70   176 1   
   179    71    72 ar  
   180    71   177 1   
   181    72   178 1   
@<TRIPOS>SUBSTRUCTURE
     1 48G         1 TEMP              0 ****  ****    0 ROOT
