@<TRIPOS>MOLECULE
48H
   60    62     1     0     0
SMALL
No Charge or Current Charge


@<TRIPOS>ATOM
      1 C1           6.9400    -2.7190     2.0160 ca         1 48H       0.137900
      2 C2           5.2940    -1.6950     0.8000 ca         1 48H       0.099500
      3 C3           5.1770    -2.8140     0.0150 ca         1 48H      -0.074600
      4 C4           6.0170    -3.9140     0.2950 ca         1 48H       0.428900
      5 C5           3.7220    -1.4240    -0.7620 cc         1 48H       0.472700
      6 O1           0.8770     0.1260    -2.7760 o          1 48H      -0.854500
      7 P1           0.3900     1.0520    -1.7110 p5         1 48H       1.458800
      8 O2           0.8200     2.4600    -1.9470 o          1 48H      -0.854500
      9 O3          -1.1340     0.8330    -1.3860 os         1 48H      -0.683800
     10 P2          -2.0940     1.7110    -2.2730 p5         1 48H       1.463800
     11 O4          -2.1970     3.1420    -1.8590 o          1 48H      -0.851500
     12 O5          -1.8410     1.5640    -3.7380 o          1 48H      -0.851500
     13 O6          -3.4650     0.9300    -1.9190 os         1 48H      -0.575400
     14 C6          -4.2480     1.1670    -0.7300 c3         1 48H       0.200600
     15 C7          -3.5030     0.7230     0.5700 c3         1 48H       0.076300
     16 O7          -2.7270     1.8190     1.1330 oh         1 48H      -0.648000
     17 C8          -4.5190     0.1940     1.6270 c          1 48H       0.469800
     18 O8          -4.7490     0.8670     2.6360 o          1 48H      -0.599100
     19 C9          -5.2760    -1.0890     1.3090 ce         1 48H       0.312300
     20 C10         -6.7480    -1.1450     1.7180 c3         1 48H      -0.156400
     21 N1          -4.7200    -1.9540     0.5010 n2         1 48H      -0.497900
     22 C11         -5.4380    -3.1100    -0.1000 c3         1 48H      -0.067200
     23 C12         -5.9370    -2.8620    -1.5560 c          1 48H       0.728000
     24 O9          -6.9700    -2.2250    -1.7160 o          1 48H      -0.709500
     25 O10         -5.2820    -3.3270    -2.4790 o          1 48H      -0.709500
     26 O11          0.9520     0.5350    -0.2930 os         1 48H      -0.552400
     27 C14          2.2130     1.7480     1.4660 c5         1 48H       0.156300
     28 C15          3.1020     2.7000     0.5950 c5         1 48H       0.095300
     29 O12          4.0340     3.4580     1.3780 oh         1 48H      -0.715000
     30 C16          3.8690     1.6690    -0.2790 c5         1 48H       0.065300
     31 O13          5.0610     2.2460    -0.8560 oh         1 48H      -0.707000
     32 C17          4.1480     0.5550     0.7890 c5         1 48H       0.327300
     33 O14          3.0160     0.5550     1.6880 os         1 48H      -0.404000
     34 N2           4.3770    -0.8070     0.3120 na         1 48H      -0.295300
     35 N3           6.1760    -1.6180     1.8170 nb         1 48H      -0.210000
     36 N4           6.9040    -3.8710     1.3020 nb         1 48H      -0.332000
     37 N5           5.9820    -5.0730    -0.4160 nv         1 48H      -1.075900
     38 N6           4.1970    -2.6710    -0.9710 nd         1 48H      -0.561100
     39 H1           7.6560    -2.6740     2.8340 h5         1 48H       0.016100
     40 H2           2.9340    -0.9380    -1.3280 h5         1 48H       0.167800
     41 H5          -4.5240     2.2270    -0.6500 h1         1 48H       0.039700
     42 H6          -5.1880     0.6070    -0.8140 h1         1 48H       0.039700
     43 H7          -2.8490    -0.1230     0.3210 h1         1 48H       0.111700
     44 H8          -3.1950     2.0800     1.9600 ho         1 48H       0.435000
     45 H9          -7.0650    -0.2430     2.2520 hc         1 48H       0.036367
     46 H10         -7.4060    -1.2440     0.8480 hc         1 48H       0.036367
     47 H11         -6.9370    -1.9970     2.3820 hc         1 48H       0.036367
     48 H12         -4.7650    -3.9770    -0.1280 h1         1 48H       0.025200
     49 H13         -6.3010    -3.4150     0.5050 h1         1 48H       0.025200
     50 H15          0.2590     2.2790     0.6600 h1         1 48H       0.007700
     51 H16          0.2600     0.8140     1.6450 h1         1 48H       0.007700
     52 H17          2.0160     2.2170     2.4400 h1         1 48H       0.095700
     53 H18          2.4890     3.3730    -0.0190 h1         1 48H       0.047700
     54 H19          4.8620     3.4470     0.8380 ho         1 48H       0.497000
     55 H20          3.2220     1.2830    -1.0750 h1         1 48H       0.074700
     56 H21          4.8090     2.6440    -1.7230 ho         1 48H       0.494000
     57 H22          5.0430     0.8320     1.3600 h2         1 48H       0.089700
     58 H23          5.1810    -5.2100    -1.0280 hn         1 48H       0.495500
     59 H24          6.3850    -5.9060     0.0030 hn         1 48H       0.495500
     60 C13          0.8200     1.3600     0.8750 c3         1 48H       0.217600
@<TRIPOS>BOND
     1     1    35 ar  
     2     1    36 ar  
     3     1    39 1   
     4     2     3 ar  
     5     2    34 1   
     6     2    35 ar  
     7     3     4 ar  
     8     3    38 1   
     9     4    36 ar  
    10     4    37 1   
    11     5    34 1   
    12     5    38 2   
    13     5    40 1   
    14     6     7 1   
    15     7     8 1   
    16     7     9 1   
    17     7    26 1   
    18     9    10 1   
    19    10    11 1   
    20    10    12 1   
    21    10    13 1   
    22    13    14 1   
    23    14    15 1   
    24    14    41 1   
    25    14    42 1   
    26    15    16 1   
    27    15    17 1   
    28    15    43 1   
    29    16    44 1   
    30    17    18 2   
    31    17    19 1   
    32    19    20 1   
    33    19    21 2   
    34    20    45 1   
    35    20    46 1   
    36    20    47 1   
    37    21    22 1   
    38    22    23 1   
    39    22    48 1   
    40    22    49 1   
    41    23    24 1   
    42    23    25 1   
    43    26    60 1   
    44    27    28 1   
    45    27    33 1   
    46    27    52 1   
    47    27    60 1   
    48    28    29 1   
    49    28    30 1   
    50    28    53 1   
    51    29    54 1   
    52    30    31 1   
    53    30    32 1   
    54    30    55 1   
    55    31    56 1   
    56    32    33 1   
    57    32    34 1   
    58    32    57 1   
    59    37    58 1   
    60    37    59 1   
    61    50    60 1   
    62    51    60 1   
@<TRIPOS>SUBSTRUCTURE
     1 48H         1 TEMP              0 ****  ****    0 ROOT
