@<TRIPOS>MOLECULE
48H
   60    62     1     0     0
SMALL
abcg2


@<TRIPOS>ATOM
      1 C1           6.5400    -2.9440     1.1570 ca         1 48H       0.137900
      2 C2           5.0850    -1.4990     0.3700 ca         1 48H       0.099500
      3 C3           4.5150    -2.4430    -0.4690 ca         1 48H      -0.074600
      4 C4           5.0740    -3.7320    -0.4300 ca         1 48H       0.428900
      5 C5           3.4280    -0.6570    -0.7910 cc         1 48H       0.472700
      6 O1           1.0320     1.0600    -2.1090 o          1 48H      -0.854500
      7 P1           0.3410     2.2370    -1.4860 p5         1 48H       1.458800
      8 O2          -0.0960     3.3850    -2.3390 o          1 48H      -0.854500
      9 O3          -0.8790     1.7300    -0.5200 os         1 48H      -0.683800
     10 P2          -2.4470     1.6430    -1.0150 p5         1 48H       1.463800
     11 O4          -3.1610     2.9150    -0.6830 o          1 48H      -0.851500
     12 O5          -2.5170     1.0680    -2.3940 o          1 48H      -0.851500
     13 O6          -2.8300     0.4900     0.0940 os         1 48H      -0.575400
     14 C6          -4.1920     0.2090     0.3250 c3         1 48H       0.200600
     15 C7          -4.3230    -0.3820     1.7320 c3         1 48H       0.076300
     16 O7          -3.8540     0.4860     2.7210 oh         1 48H      -0.648000
     17 C8          -5.7840    -0.7420     1.9650 c          1 48H       0.469800
     18 O8          -6.4780    -0.0400     2.6680 o          1 48H      -0.599100
     19 C9          -6.3410    -1.9440     1.2640 ce         1 48H       0.312300
     20 C10         -7.8310    -2.0900     1.1870 c3         1 48H      -0.156400
     21 N1          -5.4750    -2.7420     0.7950 n2         1 48H      -0.497900
     22 C11         -5.8900    -3.8840     0.0430 c3         1 48H      -0.067200
     23 C12         -6.1500    -3.5500    -1.4640 c          1 48H       0.728000
     24 O9          -6.2970    -4.5510    -2.1860 o          1 48H      -0.709500
     25 O10         -6.2060    -2.3550    -1.7900 o          1 48H      -0.709500
     26 O11          1.2480     2.7910    -0.2260 os         1 48H      -0.552400
     27 C14          3.4410     2.9330     0.6970 c5         1 48H       0.156300
     28 C15          4.9020     3.2500     0.4130 c5         1 48H       0.095300
     29 O12          5.5430     3.5690     1.6210 oh         1 48H      -0.715000
     30 C16          5.3900     1.9030    -0.1290 c5         1 48H       0.065300
     31 O13          6.7630     1.6820    -0.0150 oh         1 48H      -0.707000
     32 C17          4.6240     0.9290     0.7670 c5         1 48H       0.327300
     33 O14          3.4030     1.5450     1.0470 os         1 48H      -0.404000
     34 N2           4.3770    -0.3540     0.1510 na         1 48H      -0.295300
     35 N3           6.1020    -1.6980     1.2070 nb         1 48H      -0.210000
     36 N4           6.0970    -3.9480     0.4040 nb         1 48H      -0.332000
     37 N5           4.6350    -4.7330    -1.1990 nv         1 48H      -1.075900
     38 N6           3.4800    -1.8970    -1.1830 nd         1 48H      -0.561100
     39 H1           7.3690    -3.1860     1.8150 h5         1 48H       0.016100
     40 H2           2.7030     0.0690    -1.1440 h5         1 48H       0.167800
     41 H5          -4.8040     1.1170     0.2600 h1         1 48H       0.039700
     42 H6          -4.5780    -0.5040    -0.4100 h1         1 48H       0.039700
     43 H7          -3.7190    -1.2900     1.7790 h1         1 48H       0.111700
     44 H8          -4.4840     1.2080     2.8230 ho         1 48H       0.435000
     45 H9          -8.3470    -1.3010     1.7280 hc         1 48H       0.036367
     46 H10         -8.1490    -2.0600     0.1440 hc         1 48H       0.036367
     47 H11         -8.1530    -3.0490     1.5960 hc         1 48H       0.036367
     48 H12         -5.1050    -4.6420     0.0900 h1         1 48H       0.025200
     49 H13         -6.8080    -4.3480     0.4270 h1         1 48H       0.025200
     50 H15          2.9660     2.7110    -1.3940 h1         1 48H       0.007700
     51 H16          2.5900     4.2900    -0.7080 h1         1 48H       0.007700
     52 H17          3.0750     3.5080     1.5530 h1         1 48H       0.095700
     53 H18          5.0090     4.0520    -0.3290 h1         1 48H       0.047700
     54 H19          6.4900     3.4330     1.5000 ho         1 48H       0.497000
     55 H20          5.0460     1.7870    -1.1640 h1         1 48H       0.074700
     56 H21          7.2060     2.0890    -0.7670 ho         1 48H       0.494000
     57 H22          5.1960     0.7250     1.6800 h2         1 48H       0.089700
     58 H23          3.7990    -4.6280    -1.7470 hn         1 48H       0.495500
     59 H24          4.9980    -5.6610    -1.0680 hn         1 48H       0.495500
     60 C13          2.5610     3.2130    -0.5070 c3         1 48H       0.217600
@<TRIPOS>BOND
     1     1    35 ar  
     2     1    36 ar  
     3     1    39 1   
     4     2     3 ar  
     5     2    34 1   
     6     2    35 ar  
     7     3     4 ar  
     8     3    38 1   
     9     4    36 ar  
    10     4    37 1   
    11     5    34 1   
    12     5    38 2   
    13     5    40 1   
    14     6     7 1   
    15     7     8 1   
    16     7     9 1   
    17     7    26 1   
    18     9    10 1   
    19    10    11 1   
    20    10    12 1   
    21    10    13 1   
    22    13    14 1   
    23    14    15 1   
    24    14    41 1   
    25    14    42 1   
    26    15    16 1   
    27    15    17 1   
    28    15    43 1   
    29    16    44 1   
    30    17    18 2   
    31    17    19 1   
    32    19    20 1   
    33    19    21 2   
    34    20    45 1   
    35    20    46 1   
    36    20    47 1   
    37    21    22 1   
    38    22    23 1   
    39    22    48 1   
    40    22    49 1   
    41    23    24 1   
    42    23    25 1   
    43    26    60 1   
    44    27    28 1   
    45    27    33 1   
    46    27    52 1   
    47    27    60 1   
    48    28    29 1   
    49    28    30 1   
    50    28    53 1   
    51    29    54 1   
    52    30    31 1   
    53    30    32 1   
    54    30    55 1   
    55    31    56 1   
    56    32    33 1   
    57    32    34 1   
    58    32    57 1   
    59    37    58 1   
    60    37    59 1   
    61    50    60 1   
    62    51    60 1   
@<TRIPOS>SUBSTRUCTURE
     1 48H         1 TEMP              0 ****  ****    0 ROOT
