@<TRIPOS>MOLECULE
48I
   32    33     1     0     0
SMALL
abcg2


@<TRIPOS>ATOM
      1 CL           5.2960     0.3070    -0.4750 cl         1 48I      -0.164000
      2 C10          3.6680     0.4980     0.0410 ca         1 48I       0.161000
      3 C8           2.7840    -0.5690     0.1760 ca         1 48I      -0.179200
      4 N16          3.1580    -1.9270    -0.1870 no         1 48I       0.699200
      5 O18          2.7590    -2.8190     0.5220 o          1 48I      -0.391500
      6 O17          3.8230    -2.0840    -1.1800 o          1 48I      -0.391500
      7 C7           1.5010    -0.3770     0.6640 ca         1 48I      -0.031000
      8 C19          3.2370     1.7640     0.4050 ca         1 48I      -0.127000
      9 C15          1.9460     1.9600     0.8640 ca         1 48I      -0.041000
     10 C1           1.0610     0.8960     0.9990 ca         1 48I      -0.092300
     11 C3          -0.3430     1.1080     1.5050 c3         1 48I       0.142300
     12 N5          -1.3310     1.0630     0.4340 n          1 48I      -0.372400
     13 C20         -2.0020    -0.1280     0.2410 c          1 48I       0.619000
     14 O4          -1.7810    -1.1170     0.9130 o          1 48I      -0.550000
     15 N2          -2.9260    -0.1430    -0.7740 n          1 48I      -0.244000
     16 C13         -3.7800    -1.3150    -0.8720 c3         1 48I      -0.066000
     17 C11         -4.8140    -1.3860     0.2750 c          1 48I       0.719000
     18 O14         -5.4380    -2.4590     0.3430 o          1 48I      -0.709000
     19 O9          -4.9390    -0.3740     0.9820 o          1 48I      -0.709000
     20 C22         -3.1860     0.9650    -1.5070 cc         1 48I       0.051600
     21 C23         -2.5220     2.1220    -1.3420 cd         1 48I      -0.446200
     22 C6          -1.5110     2.2210    -0.3270 c          1 48I       0.601200
     23 O21         -0.8420     3.2150    -0.1000 o          1 48I      -0.589000
     24 H1           0.8380    -1.2250     0.7690 ha         1 48I       0.172000
     25 H2           3.9170     2.6000     0.3270 ha         1 48I       0.131000
     26 H3           1.6310     2.9600     1.1290 ha         1 48I       0.141000
     27 H4          -0.5960     0.3480     2.2390 h1         1 48I       0.081700
     28 H5          -0.4180     2.0720     2.0020 h1         1 48I       0.081700
     29 H6          -4.3070    -1.2560    -1.8260 h1         1 48I       0.048700
     30 H7          -3.1710    -2.2170    -0.9050 h1         1 48I       0.048700
     31 H9          -3.9590     0.8590    -2.2550 h4         1 48I       0.201000
     32 H10         -2.7380     2.9800    -1.9600 ha         1 48I       0.206000
@<TRIPOS>BOND
     1     1     2 1   
     2     2     3 ar  
     3     2     8 ar  
     4     3     4 1   
     5     3     7 ar  
     6     4     5 1   
     7     4     6 1   
     8     7    10 ar  
     9     7    24 1   
    10     8     9 ar  
    11     8    25 1   
    12     9    10 ar  
    13     9    26 1   
    14    10    11 1   
    15    11    12 1   
    16    11    27 1   
    17    11    28 1   
    18    12    13 1   
    19    12    22 1   
    20    13    14 2   
    21    13    15 1   
    22    15    16 1   
    23    15    20 1   
    24    16    17 1   
    25    16    29 1   
    26    16    30 1   
    27    17    18 1   
    28    17    19 1   
    29    20    21 2   
    30    20    31 1   
    31    21    22 1   
    32    21    32 1   
    33    22    23 2   
@<TRIPOS>SUBSTRUCTURE
     1 48I         1 TEMP              0 ****  ****    0 ROOT
