@<TRIPOS>MOLECULE
48I
   32    33     1     0     0
SMALL
No Charge or Current Charge


@<TRIPOS>ATOM
      1 Cl           5.2490     0.0270    -0.7860 cl         1 48I      -0.164000
      2 C10          3.6340     0.3030    -0.1310 ca         1 48I       0.161000
      3 C8           2.8330    -0.7490     0.3660 ca         1 48I      -0.179200
      4 N16          3.2950    -2.1600     0.3170 no         1 48I       0.699200
      5 O18          3.0600    -2.8700     1.3030 o          1 48I      -0.391500
      6 O17          3.6830    -2.6050    -0.7710 o          1 48I      -0.391500
      7 C7           1.5700    -0.4560     0.9290 ca         1 48I      -0.031000
      8 C19          3.1630     1.6240    -0.0740 ca         1 48I      -0.127000
      9 C15          1.9020     1.9090     0.4760 ca         1 48I      -0.041000
     10 C1           1.0990     0.8710     0.9810 ca         1 48I      -0.092300
     11 C3          -0.2710     1.1800     1.5770 c3         1 48I       0.142300
     12 N5          -1.3530     1.2300     0.5590 n          1 48I      -0.372400
     13 C20         -1.9950     0.0300     0.2090 c          1 48I       0.619000
     14 O4          -1.6830    -1.0320     0.7350 o          1 48I      -0.550000
     15 N2          -3.0110     0.0830    -0.7750 n          1 48I      -0.244000
     16 C13         -3.7130    -1.1800    -1.1500 c3         1 48I      -0.066000
     17 C11         -4.6580    -1.7440    -0.0630 c          1 48I       0.719000
     18 O14         -4.6400    -2.9490     0.1470 o          1 48I      -0.709000
     19 O9          -5.3950    -0.9670     0.5270 o          1 48I      -0.709000
     20 C22         -3.3720     1.2820    -1.3720 cc         1 48I       0.051600
     21 C23         -2.7300     2.4370    -1.0110 cd         1 48I      -0.446200
     22 C6          -1.6670     2.4700    -0.0080 c          1 48I       0.601200
     23 O21         -1.1100     3.5140     0.2970 o          1 48I      -0.589000
     24 H1           0.9480    -1.2630     1.3170 ha         1 48I       0.172000
     25 H2           3.7820     2.4340    -0.4520 ha         1 48I       0.131000
     26 H3           1.5540     2.9400     0.5120 ha         1 48I       0.141000
     27 H4          -0.5140     0.4280     2.3400 h1         1 48I       0.081700
     28 H5          -0.2190     2.1350     2.1170 h1         1 48I       0.081700
     29 H6          -4.3130    -1.0190    -2.0540 h1         1 48I       0.048700
     30 H7          -2.9630    -1.9450    -1.3870 h1         1 48I       0.048700
     31 H9          -4.1710     1.1910    -2.1040 h4         1 48I       0.201000
     32 H10         -2.9780     3.3960    -1.4510 ha         1 48I       0.206000
@<TRIPOS>BOND
     1     1     2 1   
     2     2     3 ar  
     3     2     8 ar  
     4     3     4 1   
     5     3     7 ar  
     6     4     5 1   
     7     4     6 1   
     8     7    10 ar  
     9     7    24 1   
    10     8     9 ar  
    11     8    25 1   
    12     9    10 ar  
    13     9    26 1   
    14    10    11 1   
    15    11    12 1   
    16    11    27 1   
    17    11    28 1   
    18    12    13 1   
    19    12    22 1   
    20    13    14 2   
    21    13    15 1   
    22    15    16 1   
    23    15    20 1   
    24    16    17 1   
    25    16    29 1   
    26    16    30 1   
    27    17    18 1   
    28    17    19 1   
    29    20    21 2   
    30    20    31 1   
    31    21    22 1   
    32    21    32 1   
    33    22    23 2   
@<TRIPOS>SUBSTRUCTURE
     1 48I         1 TEMP              0 ****  ****    0 ROOT
