@<TRIPOS>MOLECULE
48J
    9     8     1     0     0
SMALL
bcc


@<TRIPOS>ATOM
      1 C02        -17.1070   -21.5610    14.3670 c          1 48J       0.875600
      2 C04        -15.8210   -21.9280    13.5820 c3         1 48J       0.183900
      3 O01        -17.7930   -20.6450    13.8780 o          1 48J      -0.825300
      4 O03        -17.3180   -22.2290    15.3960 o          1 48J      -0.825300
      5 O05        -16.0230   -21.7320    12.2140 oh         1 48J      -0.638300
      6 O06        -15.4670   -23.2520    13.8270 oh         1 48J      -0.638300
      7 H2         -16.8150   -21.1760    12.1580 ho         1 48J       0.426000
      8 H3         -16.0210   -23.5150    14.5790 ho         1 48J       0.426000
      9 H4         -15.0010   -21.2680    13.9200 h2         1 48J       0.014700
@<TRIPOS>BOND
     1     1     2 1   
     2     1     3 1   
     3     1     4 1   
     4     2     5 1   
     5     2     6 1   
     6     2     9 1   
     7     5     7 1   
     8     6     8 1   
@<TRIPOS>SUBSTRUCTURE
     1 48J         1 TEMP              0 ****  ****    0 ROOT
