@<TRIPOS>MOLECULE
48J
    9     8     1     0     0
SMALL
No Charge or Current Charge


@<TRIPOS>ATOM
      1 C02        -17.0780   -21.3270    14.4510 c          1 48J       0.665000
      2 C04        -15.8130   -21.7630    13.5660 c3         1 48J       0.230300
      3 O01        -17.0600   -20.2440    15.0230 o          1 48J      -0.720000
      4 O03        -18.0230   -22.1050    14.5200 o          1 48J      -0.720000
      5 O05        -16.1420   -22.0000    12.1940 oh         1 48J      -0.700500
      6 O06        -15.2050   -22.9770    14.0160 oh         1 48J      -0.700500
      7 H2         -17.0480   -22.3840    12.2010 ho         1 48J       0.465000
      8 H3         -15.9420   -23.5370    14.3480 ho         1 48J       0.465000
      9 H4         -15.0550   -20.9700    13.6020 h2         1 48J       0.014700
@<TRIPOS>BOND
     1     1     2 1   
     2     1     3 1   
     3     1     4 1   
     4     2     5 1   
     5     2     6 1   
     6     2     9 1   
     7     5     7 1   
     8     6     8 1   
@<TRIPOS>SUBSTRUCTURE
     1 48J         1 TEMP              0 ****  ****    0 ROOT
