@<TRIPOS>MOLECULE
48K
   49    51     1     0     0
SMALL
bcc


@<TRIPOS>ATOM
      1 S            3.9020     2.0280    -0.4950 sy         1 48K       1.296200
      2 C1           6.1500    -2.9590    -0.2760 c3         1 48K       0.150100
      3 O1           4.5370     1.8100    -1.7840 o          1 48K      -0.603800
      4 C2           6.5350    -3.1220     2.0680 c3         1 48K       0.150100
      5 N2           4.6550     1.0350     0.5850 n7         1 48K      -0.806100
      6 O2           3.9110     3.3530     0.1040 o          1 48K      -0.603800
      7 C3           5.7610    -1.0550     1.1510 c3         1 48K       0.163800
      8 N3          -1.6560     0.0010    -0.8310 nu         1 48K      -0.618400
      9 O3          -3.5440    -1.7330    -2.1090 o          1 48K      -0.656500
     10 C4           4.6640    -0.4010     0.3210 c3         1 48K       0.193800
     11 N4          -5.5800    -1.6160    -1.0240 ns         1 48K      -0.459100
     12 C5           2.2300     1.4770    -0.6190 ca         1 48K      -0.350500
     13 C6           1.8740     0.5490    -1.5900 ca         1 48K       0.005000
     14 C7           0.5780     0.0770    -1.6420 ca         1 48K      -0.203000
     15 C8          -0.3790     0.5220    -0.7260 ca         1 48K       0.220600
     16 C9          -2.7090     0.2610    -0.0370 c2         1 48K       0.190000
     17 C10         -3.9330    -0.3080    -0.1860 cc         1 48K      -0.270400
     18 C11         -4.2700    -1.2860    -1.2270 c          1 48K       0.722700
     19 C12         -6.1190    -0.9370     0.0580 ca         1 48K       0.052600
     20 C13         -7.3970    -1.0000     0.5790 ca         1 48K      -0.156000
     21 C14         -7.6830    -0.2060     1.6870 ca         1 48K      -0.102000
     22 C15         -6.7140     0.6200     2.2480 ca         1 48K      -0.152000
     23 C16         -5.4300     0.6740     1.7140 ca         1 48K      -0.090000
     24 C17         -5.1280    -0.1090     0.6110 ca         1 48K      -0.070800
     25 C18         -0.0120     1.4610     0.2430 ca         1 48K      -0.203000
     26 C19          1.2860     1.9310     0.2940 ca         1 48K       0.005000
     27 HN4         -6.0830    -2.2790    -1.5940 hn         1 48K       0.339500
     28 H1           6.0980    -4.0470    -0.3160 h1         1 48K       0.032867
     29 H1A          7.1800    -2.6630    -0.5300 h1         1 48K       0.032867
     30 H1B          5.4910    -2.5780    -1.0560 h1         1 48K       0.032867
     31 H2           6.1890    -2.8060     3.0530 h1         1 48K       0.032867
     32 H2A          7.6080    -2.8850     1.9960 h1         1 48K       0.032867
     33 H2B          6.4330    -4.2070     2.0100 h1         1 48K       0.032867
     34 H3           6.7360    -0.6240     0.8680 h1         1 48K       0.042700
     35 H3A          5.5960    -0.8000     2.2010 h1         1 48K       0.042700
     36 H4           3.7010    -0.8630     0.5580 h1         1 48K       0.057700
     37 H4A          4.8520    -0.5490    -0.7420 h1         1 48K       0.057700
     38 HN2          4.4000     1.2700     1.5390 hn         1 48K       0.420800
     39 H6           2.5940     0.1910    -2.3140 ha         1 48K       0.155500
     40 H7           0.3050    -0.6430    -2.4030 ha         1 48K       0.144500
     41 HN3         -1.8190    -0.6660    -1.5770 hn         1 48K       0.480800
     42 H9          -2.5490     0.9690     0.7650 h4         1 48K       0.148000
     43 H13         -8.1500    -1.6450     0.1440 ha         1 48K       0.138000
     44 H14         -8.6770    -0.2350     2.1140 ha         1 48K       0.133000
     45 H15         -6.9600     1.2250     3.1100 ha         1 48K       0.133000
     46 H16         -4.6850     1.3210     2.1600 ha         1 48K       0.128000
     47 H18         -0.7210     1.8450     0.9630 ha         1 48K       0.144500
     48 H19          1.5460     2.6590     1.0510 ha         1 48K       0.155500
     49 N1           5.7370    -2.4990     1.0340 n3         1 48K      -0.721600
@<TRIPOS>BOND
     1     1     3 2   
     2     1     5 1   
     3     1     6 2   
     4     1    12 1   
     5     2    28 1   
     6     2    29 1   
     7     2    30 1   
     8     2    49 1   
     9     4    31 1   
    10     4    32 1   
    11     4    33 1   
    12     4    49 1   
    13     5    10 1   
    14     5    38 1   
    15     7    10 1   
    16     7    34 1   
    17     7    35 1   
    18     7    49 1   
    19     8    15 1   
    20     8    16 1   
    21     8    41 1   
    22     9    18 2   
    23    10    36 1   
    24    10    37 1   
    25    11    18 1   
    26    11    19 1   
    27    11    27 1   
    28    12    13 ar  
    29    12    26 ar  
    30    13    14 ar  
    31    13    39 1   
    32    14    15 ar  
    33    14    40 1   
    34    15    25 ar  
    35    16    17 2   
    36    16    42 1   
    37    17    18 1   
    38    17    24 1   
    39    19    20 ar  
    40    19    24 ar  
    41    20    21 ar  
    42    20    43 1   
    43    21    22 ar  
    44    21    44 1   
    45    22    23 ar  
    46    22    45 1   
    47    23    24 ar  
    48    23    46 1   
    49    25    26 ar  
    50    25    47 1   
    51    26    48 1   
@<TRIPOS>SUBSTRUCTURE
     1 48K         1 TEMP              0 ****  ****    0 ROOT
