@<TRIPOS>MOLECULE
48K
   49    51     1     0     0
SMALL
No Charge or Current Charge


@<TRIPOS>ATOM
      1 S            4.0900     2.4630    -0.4430 sy         1 48K       1.154600
      2 C1           4.2120    -2.9230     1.3830 c3         1 48K       0.150100
      3 O1           4.3960     3.0770    -1.7370 o          1 48K      -0.533000
      4 C2           6.6380    -3.1110     1.7080 c3         1 48K       0.150100
      5 N2           5.0560     1.1070    -0.3650 n7         1 48K      -0.861300
      6 O2           4.2750     3.1600     0.8300 o          1 48K      -0.533000
      7 C3           5.7260    -1.1060     0.5990 c3         1 48K       0.163800
      8 N3          -1.3600    -0.0430    -0.7520 nu         1 48K      -0.812000
      9 O3          -3.1360    -1.6720    -2.3870 o          1 48K      -0.581000
     10 C4           4.6670     0.0310     0.5740 c3         1 48K       0.193800
     11 N4          -5.2350    -1.6820    -1.3970 ns         1 48K      -0.392100
     12 C5           2.4520     1.7280    -0.5230 ca         1 48K      -0.350500
     13 C6           2.0000     1.1620    -1.7300 ca         1 48K       0.023000
     14 C7           0.7250     0.5740    -1.7910 ca         1 48K      -0.185000
     15 C8          -0.1020     0.5510    -0.6590 ca         1 48K       0.359000
     16 C9          -2.5120     0.1090     0.0180 c2         1 48K       0.140000
     17 C10         -3.6880    -0.4800    -0.3140 cc         1 48K      -0.270400
     18 C11         -3.9140    -1.3380    -1.5050 c          1 48K       0.580200
     19 C12         -5.8860    -1.1490    -0.2860 ca         1 48K       0.052600
     20 C13         -7.2110    -1.2810     0.1390 ca         1 48K      -0.138000
     21 C14         -7.5830    -0.6110     1.3250 ca         1 48K      -0.084000
     22 C15         -6.6350     0.1610     2.0430 ca         1 48K      -0.134000
     23 C16         -5.3020     0.2760     1.5870 ca         1 48K      -0.072000
     24 C17         -4.9540    -0.3970     0.4080 ca         1 48K      -0.070800
     25 C18          0.3540     1.1110     0.5460 ca         1 48K      -0.185000
     26 C19          1.6270     1.7010     0.6190 ca         1 48K       0.023000
     27 HN4         -5.6950    -2.2730    -2.0790 hn         1 48K       0.339500
     28 H1           4.0840    -3.7030     2.1460 h1         1 48K       0.032867
     29 H1A          4.1960    -3.4040     0.3960 h1         1 48K       0.032867
     30 H1B          3.3480    -2.2500     1.4540 h1         1 48K       0.032867
     31 H2           7.5560    -2.5570     1.9500 h1         1 48K       0.032867
     32 H2A          6.8020    -3.6520     0.7660 h1         1 48K       0.032867
     33 H2B          6.4710    -3.8480     2.5040 h1         1 48K       0.032867
     34 H3           5.7910    -1.5370    -0.4100 h1         1 48K       0.042700
     35 H3A          6.6990    -0.6420     0.8080 h1         1 48K       0.042700
     36 H4           4.5570     0.4260     1.5940 h1         1 48K       0.057700
     37 H4A          3.7030    -0.4040     0.2790 h1         1 48K       0.057700
     38 HN2          5.9310     1.5240    -0.0530 hn         1 48K       0.476000
     39 H6           2.6330     1.1690    -2.6170 ha         1 48K       0.137500
     40 H7           0.3830     0.1390    -2.7250 ha         1 48K       0.126500
     41 HN3         -1.5050    -0.5810    -1.6140 hn         1 48K       0.536000
     42 H9          -2.4400     0.7340     0.9120 h4         1 48K       0.198000
     43 H13         -7.9270    -1.8770    -0.4220 ha         1 48K       0.120000
     44 H14         -8.6050    -0.6880     1.6910 ha         1 48K       0.115000
     45 H15         -6.9370     0.6720     2.9550 ha         1 48K       0.115000
     46 H16         -4.5740     0.8680     2.1370 ha         1 48K       0.110000
     47 H18         -0.2680     1.0860     1.4340 ha         1 48K       0.126500
     48 H19          1.9650     2.1280     1.5630 ha         1 48K       0.137500
     49 N1           5.4840    -2.1900     1.5950 n3         1 48K      -0.721600
@<TRIPOS>BOND
     1     1     3 2   
     2     1     5 1   
     3     1     6 2   
     4     1    12 1   
     5     2    28 1   
     6     2    29 1   
     7     2    30 1   
     8     2    49 1   
     9     4    31 1   
    10     4    32 1   
    11     4    33 1   
    12     4    49 1   
    13     5    10 1   
    14     5    38 1   
    15     7    10 1   
    16     7    34 1   
    17     7    35 1   
    18     7    49 1   
    19     8    15 1   
    20     8    16 1   
    21     8    41 1   
    22     9    18 2   
    23    10    36 1   
    24    10    37 1   
    25    11    18 1   
    26    11    19 1   
    27    11    27 1   
    28    12    13 ar  
    29    12    26 ar  
    30    13    14 ar  
    31    13    39 1   
    32    14    15 ar  
    33    14    40 1   
    34    15    25 ar  
    35    16    17 2   
    36    16    42 1   
    37    17    18 1   
    38    17    24 1   
    39    19    20 ar  
    40    19    24 ar  
    41    20    21 ar  
    42    20    43 1   
    43    21    22 ar  
    44    21    44 1   
    45    22    23 ar  
    46    22    45 1   
    47    23    24 ar  
    48    23    46 1   
    49    25    26 ar  
    50    25    47 1   
    51    26    48 1   
@<TRIPOS>SUBSTRUCTURE
     1 48K         1 TEMP              0 ****  ****    0 ROOT
