@<TRIPOS>MOLECULE
48L
   70    74     1     0     0
SMALL
No Charge or Current Charge


@<TRIPOS>ATOM
      1 N           -0.6500     1.0980    -0.7240 n2         1 48L      -0.609900
      2 CG1          1.5900    -1.2670     0.0180 ca         1 48L      -0.112300
      3 CG2          1.8870     1.2330    -1.1520 ca         1 48L      -0.112300
      4 CG3         -2.8220     0.2090    -0.1610 ca         1 48L      -0.205900
      5 CD1          2.7300    -2.0610    -0.2280 ca         1 48L      -0.081500
      6 CD2          1.3890    -0.7620     1.3260 ca         1 48L      -0.081500
      7 CD3          2.0420     2.0910    -0.0380 ca         1 48L      -0.033000
      8 CD4          3.0120     0.9800    -1.9650 ca         1 48L       0.186000
      9 CD5         -3.7290    -0.5590    -0.9170 ca         1 48L      -0.005000
     10 CD6         -3.3090     1.1310     0.7860 ca         1 48L       0.242100
     11 CE1          3.6470    -2.3410     0.7990 ca         1 48L      -0.107000
     12 CE2          2.3080    -1.0410     2.3520 ca         1 48L      -0.107000
     13 CE3          4.2600     1.5530    -1.6730 ca         1 48L      -0.153000
     14 CE4          3.2920     2.6600     0.2570 ca         1 48L      -0.041900
     15 CE5         -5.1120    -0.4120    -0.7290 ca         1 48L      -0.246000
     16 CE6         -4.7000     1.2680     0.9760 ca         1 48L      -0.248000
     17 CZ1          3.4360    -1.8300     2.0880 ca         1 48L       0.127000
     18 CZ2          4.4040     2.3930    -0.5570 ca         1 48L      -0.055000
     19 CZ3         -5.6000     0.5050     0.2220 ca         1 48L       0.196100
     20 Cl           4.5870    -2.1760     3.3710 cl         1 48L      -0.203000
     21 CM1         -7.9550    -0.0460    -0.2620 c3         1 48L       0.148900
     22 CM2         -1.4940     3.2960     3.2060 c3         1 48L      -0.110600
     23 CM3         -3.0280     4.1630     1.3510 c3         1 48L      -0.110600
     24 C1          -0.6420    -5.2510    -2.4030 c          1 48L       0.548000
     25 N1          -1.4490    -6.0610    -1.6350 ns         1 48L      -0.504900
     26 O1          -0.3060    -5.6000    -3.5230 o          1 48L      -0.566000
     27 C2          -1.7780    -5.8260    -0.2200 c6         1 48L       0.086000
     28 N2          -0.6720    -3.5880    -0.4060 n          1 48L      -0.412800
     29 C3          -0.8180    -4.8070     0.4320 c6         1 48L       0.086000
     30 N3          -0.7590    -1.1670    -0.6890 n          1 48L      -0.382300
     31 O3          -6.9460     0.6880     0.4550 os         1 48L      -0.341100
     32 C4          -0.2220    -3.8810    -1.8060 c6         1 48L       0.019000
     33 C5          -1.1130    -2.3180     0.0400 c          1 48L       0.677100
     34 O5          -1.7930    -2.2330     1.0520 o          1 48L      -0.583100
     35 C6          -1.3560     0.0670    -0.3910 ce         1 48L       0.551500
     36 O6          -2.3950     1.8330     1.5510 os         1 48L      -0.349100
     37 C7           0.5380     0.5700    -1.4720 c5         1 48L       0.162800
     38 C8           0.6220    -0.9780    -1.1510 c5         1 48L       0.129000
     39 C9          -2.7210     3.0030     2.3230 c3         1 48L       0.180300
     40 Br           3.4780     3.7950     1.7840 br         1 48L      -0.097100
     41 F            2.9030     0.1690    -3.0420 f          1 48L      -0.180000
     42 HD1          2.9130    -2.4580    -1.2240 ha         1 48L       0.129000
     43 HD2          0.5250    -0.1430     1.5570 ha         1 48L       0.129000
     44 HD3          1.1990     2.3090     0.6130 ha         1 48L       0.158000
     45 HD5         -3.3630    -1.2640    -1.6610 ha         1 48L       0.118000
     46 HE1          4.5240    -2.9510     0.5950 ha         1 48L       0.131500
     47 HE2          2.1460    -0.6450     3.3510 ha         1 48L       0.131500
     48 HE3          5.1150     1.3410    -2.3100 ha         1 48L       0.136000
     49 HE5         -5.7850    -1.0160    -1.3290 ha         1 48L       0.122000
     50 HE6         -5.1030     1.9530     1.7130 ha         1 48L       0.134000
     51 HZ2          5.3710     2.8350    -0.3250 ha         1 48L       0.133000
     52 HM11        -8.9550     0.2520     0.0770 h1         1 48L       0.042367
     53 HM12        -7.8890     0.1510    -1.3400 h1         1 48L       0.042367
     54 HM13        -7.8470    -1.1250    -0.0930 h1         1 48L       0.042367
     55 HM21        -1.6680     4.1850     3.8230 hc         1 48L       0.048533
     56 HM22        -1.2930     2.4510     3.8750 hc         1 48L       0.048533
     57 HM23        -0.6030     3.4710     2.5910 hc         1 48L       0.048533
     58 HM31        -2.1890     4.3250     0.6630 hc         1 48L       0.048533
     59 HM32        -3.9260     3.9590     0.7570 hc         1 48L       0.048533
     60 HM33        -3.1990     5.0920     1.9070 hc         1 48L       0.048533
     61 H21         -2.8080    -5.4440    -0.1640 h1         1 48L       0.055700
     62 H22         -1.7390    -6.7800     0.3250 h1         1 48L       0.055700
     63 H31         -1.1760    -4.5620     1.4420 h1         1 48L       0.073700
     64 H32          0.1710    -5.2720     0.5500 h1         1 48L       0.073700
     65 H41          0.8750    -3.8450    -1.8530 h1         1 48L       0.081700
     66 H42         -0.6300    -3.1280    -2.4940 h1         1 48L       0.081700
     67 H7           0.3340     0.6950    -2.5460 h1         1 48L       0.090700
     68 H8           0.8720    -1.5450    -2.0550 h1         1 48L       0.076700
     69 H9          -3.5810     2.8220     2.9810 h1         1 48L       0.048700
     70 HN1         -1.7360    -6.9340    -2.0620 hn         1 48L       0.320500
@<TRIPOS>BOND
     1     1    35 2   
     2     1    37 1   
     3     2     5 ar  
     4     2     6 ar  
     5     2    38 1   
     6     3     7 ar  
     7     3     8 ar  
     8     3    37 1   
     9     4     9 ar  
    10     4    10 ar  
    11     4    35 1   
    12     5    11 ar  
    13     5    42 1   
    14     6    12 ar  
    15     6    43 1   
    16     7    14 ar  
    17     7    44 1   
    18     8    13 ar  
    19     8    41 1   
    20     9    15 ar  
    21     9    45 1   
    22    10    16 ar  
    23    10    36 1   
    24    11    17 ar  
    25    11    46 1   
    26    12    17 ar  
    27    12    47 1   
    28    13    18 ar  
    29    13    48 1   
    30    14    18 ar  
    31    14    40 1   
    32    15    19 ar  
    33    15    49 1   
    34    16    19 ar  
    35    16    50 1   
    36    17    20 1   
    37    18    51 1   
    38    19    31 1   
    39    21    31 1   
    40    21    52 1   
    41    21    53 1   
    42    21    54 1   
    43    22    39 1   
    44    22    55 1   
    45    22    56 1   
    46    22    57 1   
    47    23    39 1   
    48    23    58 1   
    49    23    59 1   
    50    23    60 1   
    51    24    25 1   
    52    24    26 2   
    53    24    32 1   
    54    25    27 1   
    55    25    70 1   
    56    27    29 1   
    57    27    61 1   
    58    27    62 1   
    59    28    29 1   
    60    28    32 1   
    61    28    33 1   
    62    29    63 1   
    63    29    64 1   
    64    30    33 1   
    65    30    35 1   
    66    30    38 1   
    67    32    65 1   
    68    32    66 1   
    69    33    34 2   
    70    36    39 1   
    71    37    38 1   
    72    37    67 1   
    73    38    68 1   
    74    39    69 1   
@<TRIPOS>SUBSTRUCTURE
     1 48L         1 TEMP              0 ****  ****    0 ROOT
