@<TRIPOS>MOLECULE
48L
   70    74     1     0     0
SMALL
abcg2


@<TRIPOS>ATOM
      1 N           -0.6600     0.9190    -1.6840 n2         1 48L      -0.609900
      2 CG1          1.6190    -1.2600    -0.1510 ca         1 48L      -0.112300
      3 CG2          1.7220     1.3300    -1.3520 ca         1 48L      -0.112300
      4 CG3         -2.7680     0.1920    -0.7640 ca         1 48L      -0.205900
      5 CD1          2.7330    -2.0780    -0.2810 ca         1 48L      -0.081500
      6 CD2          1.3850    -0.6290     1.0690 ca         1 48L      -0.081500
      7 CD3          1.3950     2.3620    -0.4820 ca         1 48L      -0.033000
      8 CD4          3.0590     1.1560    -1.6690 ca         1 48L       0.186000
      9 CD5         -3.7750    -0.3710    -1.5210 ca         1 48L      -0.005000
     10 CD6         -3.0960     0.9510     0.3690 ca         1 48L       0.242100
     11 CE1          3.6090    -2.2670     0.7780 ca         1 48L      -0.107000
     12 CE2          2.2480    -0.8060     2.1360 ca         1 48L      -0.107000
     13 CE3          4.0620     1.9490    -1.1520 ca         1 48L      -0.153000
     14 CE4          2.3920     3.1680     0.0450 ca         1 48L      -0.041900
     15 CE5         -5.1170    -0.1930    -1.2010 ca         1 48L      -0.246000
     16 CE6         -4.4280     1.1430     0.6990 ca         1 48L      -0.248000
     17 CZ1          3.3570    -1.6250     1.9780 ca         1 48L       0.127000
     18 CZ2          3.7250     2.9740    -0.2800 ca         1 48L      -0.055000
     19 CZ3         -5.4370     0.5710    -0.0840 ca         1 48L       0.196100
     20 CL           4.4420    -1.8510     3.3110 cl         1 48L      -0.203000
     21 CM1         -7.7660     0.2400    -0.3870 c3         1 48L       0.148900
     22 CM2         -0.9760     1.9310     3.1050 c3         1 48L      -0.110600
     23 CM3         -2.5140     3.6030     2.0150 c3         1 48L      -0.110600
     24 C1          -1.0540    -5.2310    -1.8870 c          1 48L       0.548000
     25 N1          -1.7790    -5.8150    -0.9270 ns         1 48L      -0.504900
     26 O1          -0.9330    -5.6930    -3.0140 o          1 48L      -0.566000
     27 C2          -1.9290    -5.3450     0.4370 c6         1 48L       0.086000
     28 N2          -0.6610    -3.4050    -0.2420 n          1 48L      -0.412800
     29 C3          -0.7810    -4.4240     0.7780 c6         1 48L       0.086000
     30 N3          -0.7100    -1.2040    -0.9460 n          1 48L      -0.382300
     31 O3          -6.6920     0.8180     0.3290 os         1 48L      -0.341100
     32 C4          -0.3380    -3.9300    -1.5480 c6         1 48L       0.019000
     33 C5          -1.1300    -2.1560    -0.0090 c          1 48L       0.677100
     34 O5          -1.8200    -1.8640     0.9470 o          1 48L      -0.583100
     35 C6          -1.3520     0.0130    -1.1290 ce         1 48L       0.551500
     36 O6          -2.0540     1.4190     1.0690 os         1 48L      -0.349100
     37 C7           0.6740     0.4090    -1.9210 c5         1 48L       0.162800
     38 C8           0.7020    -1.0480    -1.3240 c5         1 48L       0.129000
     39 C9          -2.2390     2.1350     2.2940 c3         1 48L       0.180300
     40 BR           1.9190     4.5630     1.2290 br         1 48L      -0.097100
     41 F            3.3870     0.1610    -2.5090 f          1 48L      -0.180000
     42 HD1          2.9270    -2.5820    -1.2200 ha         1 48L       0.129000
     43 HD2          0.5230     0.0140     1.1970 ha         1 48L       0.129000
     44 HD3          0.3560     2.5140    -0.2200 ha         1 48L       0.158000
     45 HD5         -3.5200    -0.9650    -2.3900 ha         1 48L       0.118000
     46 HE1          4.4720    -2.9090     0.6660 ha         1 48L       0.131500
     47 HE2          2.0610    -0.3100     3.0790 ha         1 48L       0.131500
     48 HE3          5.0940     1.7750    -1.4250 ha         1 48L       0.136000
     49 HE5         -5.8750    -0.6450    -1.8240 ha         1 48L       0.122000
     50 HE6         -4.7250     1.7240     1.5620 ha         1 48L       0.134000
     51 HZ2          4.5040     3.6040     0.1280 ha         1 48L       0.133000
     52 HM11        -8.6760     0.5410     0.1260 h1         1 48L       0.042367
     53 HM12        -7.8090     0.5980    -1.4180 h1         1 48L       0.042367
     54 HM13        -7.7100    -0.8520    -0.3940 h1         1 48L       0.042367
     55 HM21        -1.0710     2.4350     4.0670 hc         1 48L       0.048533
     56 HM22        -0.7980     0.8730     3.2970 hc         1 48L       0.048533
     57 HM23        -0.1040     2.3450     2.5960 hc         1 48L       0.048533
     58 HM31        -1.6680     4.0640     1.5020 hc         1 48L       0.048533
     59 HM32        -3.4040     3.7480     1.4020 hc         1 48L       0.048533
     60 HM33        -2.6710     4.1350     2.9540 hc         1 48L       0.048533
     61 H21         -2.8820    -4.8250     0.5640 h1         1 48L       0.055700
     62 H22         -1.9290    -6.2060     1.1050 h1         1 48L       0.055700
     63 H31         -0.9320    -3.9690     1.7530 h1         1 48L       0.073700
     64 H32          0.1560    -4.9860     0.8120 h1         1 48L       0.073700
     65 H41          0.7370    -4.1170    -1.6490 h1         1 48L       0.081700
     66 H42         -0.6200    -3.2210    -2.3260 h1         1 48L       0.081700
     67 H7           0.8260     0.3360    -3.0010 h1         1 48L       0.090700
     68 H8           0.9750    -1.7440    -2.1170 h1         1 48L       0.076700
     69 H9          -3.0770     1.6980     2.8470 h1         1 48L       0.048700
     70 HN1         -2.2680    -6.6590    -1.1870 hn         1 48L       0.320500
@<TRIPOS>BOND
     1     1    35 2   
     2     1    37 1   
     3     2     5 ar  
     4     2     6 ar  
     5     2    38 1   
     6     3     7 ar  
     7     3     8 ar  
     8     3    37 1   
     9     4     9 ar  
    10     4    10 ar  
    11     4    35 1   
    12     5    11 ar  
    13     5    42 1   
    14     6    12 ar  
    15     6    43 1   
    16     7    14 ar  
    17     7    44 1   
    18     8    13 ar  
    19     8    41 1   
    20     9    15 ar  
    21     9    45 1   
    22    10    16 ar  
    23    10    36 1   
    24    11    17 ar  
    25    11    46 1   
    26    12    17 ar  
    27    12    47 1   
    28    13    18 ar  
    29    13    48 1   
    30    14    18 ar  
    31    14    40 1   
    32    15    19 ar  
    33    15    49 1   
    34    16    19 ar  
    35    16    50 1   
    36    17    20 1   
    37    18    51 1   
    38    19    31 1   
    39    21    31 1   
    40    21    52 1   
    41    21    53 1   
    42    21    54 1   
    43    22    39 1   
    44    22    55 1   
    45    22    56 1   
    46    22    57 1   
    47    23    39 1   
    48    23    58 1   
    49    23    59 1   
    50    23    60 1   
    51    24    25 1   
    52    24    26 2   
    53    24    32 1   
    54    25    27 1   
    55    25    70 1   
    56    27    29 1   
    57    27    61 1   
    58    27    62 1   
    59    28    29 1   
    60    28    32 1   
    61    28    33 1   
    62    29    63 1   
    63    29    64 1   
    64    30    33 1   
    65    30    35 1   
    66    30    38 1   
    67    32    65 1   
    68    32    66 1   
    69    33    34 2   
    70    36    39 1   
    71    37    38 1   
    72    37    67 1   
    73    38    68 1   
    74    39    69 1   
@<TRIPOS>SUBSTRUCTURE
     1 48L         1 TEMP              0 ****  ****    0 ROOT
