@<TRIPOS>MOLECULE
48M
   67    71     1     0     0
SMALL
No Charge or Current Charge


@<TRIPOS>ATOM
      1 N           -0.7910     1.2400    -0.7540 n2         1 48M      -0.599900
      2 CG1          1.9290    -0.5850    -0.1300 ca         1 48M      -0.107300
      3 CG2          1.6390     1.9260    -1.2920 ca         1 48M      -0.065300
      4 CG3         -2.7020    -0.1120    -0.1450 ca         1 48M      -0.143900
      5 CD1          3.2010    -1.1250    -0.4170 ca         1 48M      -0.084500
      6 CD2          1.6690    -0.1380     1.1880 ca         1 48M      -0.084500
      7 CD3          2.7480     1.9110    -2.1650 ca         1 48M      -0.102000
      8 CD4          1.6620     2.8030    -0.1840 ca         1 48M      -0.077000
      9 CD5         -3.4440    -1.0560    -0.8860 ca         1 48M      -0.046000
     10 CD6         -3.3510     0.6730     0.8320 ca         1 48M       0.209100
     11 CE1          4.1880    -1.2130     0.5800 ca         1 48M      -0.104000
     12 CE2          2.6570    -0.2250     2.1840 ca         1 48M      -0.104000
     13 CE3          3.8590     2.7410    -1.9310 ca         1 48M      -0.103000
     14 CE4          2.7730     3.6280     0.0520 ca         1 48M       0.117000
     15 CE5         -4.8180    -1.2210    -0.6530 ca         1 48M      -0.120000
     16 CE6         -4.7330     0.4960     1.0670 ca         1 48M      -0.176000
     17 CZ1          3.9150    -0.7620     1.8790 ca         1 48M       0.128000
     18 CZ2          3.8730     3.5990    -0.8190 ca         1 48M      -0.097000
     19 CZ3         -5.4680    -0.4460     0.3230 ca         1 48M       0.039000
     20 Cl2          5.1520    -0.8680     3.1250 cl         1 48M      -0.201000
     21 Cl1          2.7870     4.6980     1.4480 cl         1 48M      -0.213000
     22 CM1         -6.8770    -0.6220     0.5650 cg         1 48M       0.320000
     23 CM2         -1.9760     3.1730     3.2190 c3         1 48M      -0.111100
     24 CM3         -3.7280     3.6890     1.4270 c3         1 48M      -0.111100
     25 NM1         -8.0200    -0.7570     0.7660 n1         1 48M      -0.449000
     26 C1           0.5460    -4.9360    -2.5550 c          1 48M       0.548000
     27 N1          -0.0410    -5.9110    -1.7800 ns         1 48M      -0.504900
     28 O1           0.9130    -5.1910    -3.6910 o          1 48M      -0.564000
     29 C2          -0.3670    -5.7700    -0.3510 c6         1 48M       0.086000
     30 N2           0.2190    -3.3430    -0.5290 n          1 48M      -0.410800
     31 C3           0.3690    -4.5740     0.2910 c6         1 48M       0.086000
     32 N3          -0.4050    -0.9960    -0.7650 n          1 48M      -0.379300
     33 C4           0.6780    -3.5150    -1.9470 c6         1 48M       0.018000
     34 C5          -0.4760    -2.2060    -0.0490 c          1 48M       0.677100
     35 O5          -1.1300    -2.2850     0.9800 o          1 48M      -0.588100
     36 C6          -1.2480     0.0750    -0.4240 ce         1 48M       0.532500
     37 O6          -2.5890     1.5560     1.5780 os         1 48M      -0.347100
     38 C7           0.4510     0.9890    -1.5580 c5         1 48M       0.156800
     39 C8           0.8850    -0.5040    -1.2660 c5         1 48M       0.128000
     40 C9          -3.1390     2.6200     2.3740 c3         1 48M       0.180300
     41 HD1          3.4310    -1.4720    -1.4220 ha         1 48M       0.126500
     42 HD2          0.7030     0.2870     1.4510 ha         1 48M       0.126500
     43 HD3          2.7520     1.2470    -3.0260 ha         1 48M       0.112000
     44 HD4          0.8250     2.8400     0.5090 ha         1 48M       0.149000
     45 HD5         -2.9580    -1.6560    -1.6530 ha         1 48M       0.126000
     46 HE1          5.1640    -1.6280     0.3440 ha         1 48M       0.131500
     47 HE2          2.4470     0.1260     3.1910 ha         1 48M       0.131500
     48 HE3          4.7090     2.7150    -2.6090 ha         1 48M       0.118000
     49 HE5         -5.3770    -1.9520    -1.2350 ha         1 48M       0.131000
     50 HE6         -5.2470     1.0730     1.8290 ha         1 48M       0.132000
     51 HZ2          4.7310     4.2390    -0.6330 ha         1 48M       0.129000
     52 HM21        -2.3200     4.0000     3.8520 hc         1 48M       0.050533
     53 HM22        -1.5710     2.3900     3.8720 hc         1 48M       0.050533
     54 HM23        -1.1670     3.5430     2.5780 hc         1 48M       0.050533
     55 HM31        -2.9700     4.0350     0.7130 hc         1 48M       0.050533
     56 HM32        -4.5790     3.2940     0.8610 hc         1 48M       0.050533
     57 HM33        -4.0790     4.5550     1.9990 hc         1 48M       0.050533
     58 H21         -1.4520    -5.6220    -0.2570 h1         1 48M       0.056700
     59 H22         -0.1030    -6.6990     0.1760 h1         1 48M       0.056700
     60 H31          0.0000    -4.4230     1.3150 h1         1 48M       0.074200
     61 H32          1.4390    -4.8120     0.3710 h1         1 48M       0.074200
     62 H41          1.7380    -3.2400    -2.0240 h1         1 48M       0.081200
     63 H42          0.0940    -2.8610    -2.6090 h1         1 48M       0.081200
     64 H7           0.1770     1.0730    -2.6200 h1         1 48M       0.083700
     65 H8           1.2230    -0.9930    -2.1870 h1         1 48M       0.072700
     66 H9          -3.9130     2.2520     3.0590 h1         1 48M       0.046700
     67 HN1         -0.1440    -6.8210    -2.2140 hn         1 48M       0.322500
@<TRIPOS>BOND
     1     1    36 2   
     2     1    38 1   
     3     2     5 ar  
     4     2     6 ar  
     5     2    39 1   
     6     3     7 ar  
     7     3     8 ar  
     8     3    38 1   
     9     4     9 ar  
    10     4    10 ar  
    11     4    36 1   
    12     5    11 ar  
    13     5    41 1   
    14     6    12 ar  
    15     6    42 1   
    16     7    13 ar  
    17     7    43 1   
    18     8    14 ar  
    19     8    44 1   
    20     9    15 ar  
    21     9    45 1   
    22    10    16 ar  
    23    10    37 1   
    24    11    17 ar  
    25    11    46 1   
    26    12    17 ar  
    27    12    47 1   
    28    13    18 ar  
    29    13    48 1   
    30    14    18 ar  
    31    14    21 1   
    32    15    19 ar  
    33    15    49 1   
    34    16    19 ar  
    35    16    50 1   
    36    17    20 1   
    37    18    51 1   
    38    19    22 1   
    39    22    25 3   
    40    23    40 1   
    41    23    52 1   
    42    23    53 1   
    43    23    54 1   
    44    24    40 1   
    45    24    55 1   
    46    24    56 1   
    47    24    57 1   
    48    26    27 1   
    49    26    28 2   
    50    26    33 1   
    51    27    29 1   
    52    27    67 1   
    53    29    31 1   
    54    29    58 1   
    55    29    59 1   
    56    30    31 1   
    57    30    33 1   
    58    30    34 1   
    59    31    60 1   
    60    31    61 1   
    61    32    34 1   
    62    32    36 1   
    63    32    39 1   
    64    33    62 1   
    65    33    63 1   
    66    34    35 2   
    67    37    40 1   
    68    38    39 1   
    69    38    64 1   
    70    39    65 1   
    71    40    66 1   
@<TRIPOS>SUBSTRUCTURE
     1 48M         1 TEMP              0 ****  ****    0 ROOT
