@<TRIPOS>MOLECULE
48M
   67    71     1     0     0
SMALL
bcc


@<TRIPOS>ATOM
      1 N           -0.8160     1.0380    -1.7450 n2         1 48M      -0.599900
      2 CG1          1.9340    -0.5770    -0.2910 ca         1 48M      -0.107300
      3 CG2          1.4360     1.9660    -1.5020 ca         1 48M      -0.065300
      4 CG3         -2.6840    -0.1020    -0.7570 ca         1 48M      -0.143900
      5 CD1          3.2310    -1.0230    -0.5020 ca         1 48M      -0.102500
      6 CD2          1.5860    -0.0950     0.9680 ca         1 48M      -0.102500
      7 CD3          2.7210     2.1620    -1.9960 ca         1 48M      -0.120000
      8 CD4          0.9560     2.8040    -0.5040 ca         1 48M      -0.095000
      9 CD5         -3.5870    -0.8040    -1.5340 ca         1 48M      -0.064000
     10 CD6         -3.1000     0.5640     0.4040 ca         1 48M       0.209100
     11 CE1          4.1760    -0.9900     0.5140 ca         1 48M      -0.122000
     12 CE2          2.5140    -0.0580     1.9950 ca         1 48M      -0.122000
     13 CE3          3.5220     3.1730    -1.4870 ca         1 48M      -0.121000
     14 CE4          1.7680     3.8090    -0.0070 ca         1 48M       0.025400
     15 CE5         -4.9290    -0.8530    -1.1890 ca         1 48M      -0.138000
     16 CE6         -4.4440     0.5350     0.7510 ca         1 48M      -0.194000
     17 CZ1          3.8050    -0.5050     1.7560 ca         1 48M       0.036400
     18 CZ2          3.0520     4.0090    -0.4830 ca         1 48M      -0.115000
     19 CZ3         -5.3420    -0.1750    -0.0490 ca         1 48M       0.039000
     20 CL2          4.9720    -0.4600     3.0380 cl         1 48M      -0.109400
     21 CL1          1.1510     4.8400     1.2480 cl         1 48M      -0.121400
     22 CM1         -6.7210    -0.1980     0.3210 cg         1 48M       0.230800
     23 CM2         -1.1510     1.9270     3.1130 c3         1 48M      -0.111100
     24 CM3         -2.9290     3.2920     1.9700 c3         1 48M      -0.111100
     25 NM1         -7.8350    -0.2180     0.6170 n1         1 48M      -0.359800
     26 C1           0.2690    -5.0380    -1.9810 c          1 48M       0.690500
     27 N1          -0.3290    -5.7870    -1.0480 ns         1 48M      -0.571900
     28 O1           0.5380    -5.4480    -3.1020 o          1 48M      -0.639500
     29 C2          -0.6320    -5.3770     0.3090 c6         1 48M       0.086000
     30 N2           0.1690    -3.1840    -0.3200 n          1 48M      -0.477800
     31 C3           0.2560    -4.2150     0.6930 c6         1 48M       0.086000
     32 N3          -0.3780    -1.0440    -1.0130 n          1 48M      -0.446300
     33 C4           0.6350    -3.6050    -1.6210 c6         1 48M       0.018000
     34 C5          -0.5790    -2.0790    -0.0940 c          1 48M       0.811100
     35 O5          -1.3440    -1.9610     0.8430 o          1 48M      -0.588100
     36 C6          -1.2700     0.0050    -1.1700 ce         1 48M       0.532500
     37 O6          -2.1360     1.1690     1.1020 os         1 48M      -0.323900
     38 C7           0.5900     0.8350    -2.0260 c5         1 48M       0.156800
     39 C8           0.9540    -0.5790    -1.4290 c5         1 48M       0.128000
     40 C9          -2.4310     1.8970     2.3040 c3         1 48M       0.157100
     41 HD1          3.5200    -1.4020    -1.4750 ha         1 48M       0.144500
     42 HD2          0.5820     0.2580     1.1680 ha         1 48M       0.144500
     43 HD3          3.1020     1.5220    -2.7830 ha         1 48M       0.130000
     44 HD4         -0.0430     2.6620    -0.1130 ha         1 48M       0.167000
     45 HD5         -3.2450    -1.3150    -2.4250 ha         1 48M       0.144000
     46 HE1          5.1830    -1.3410     0.3350 ha         1 48M       0.149500
     47 HE2          2.2330     0.3170     2.9700 ha         1 48M       0.149500
     48 HE3          4.5220     3.3180    -1.8740 ha         1 48M       0.136000
     49 HE5         -5.6370    -1.3980    -1.7970 ha         1 48M       0.149000
     50 HE6         -4.8170     1.0430     1.6280 ha         1 48M       0.150000
     51 HZ2          3.6750     4.7990    -0.0860 ha         1 48M       0.147000
     52 HM21        -1.3300     2.4400     4.0580 hc         1 48M       0.050533
     53 HM22        -0.8000     0.9200     3.3400 hc         1 48M       0.050533
     54 HM23        -0.3600     2.4640     2.5870 hc         1 48M       0.050533
     55 HM31        -2.1550     3.8660     1.4580 hc         1 48M       0.050533
     56 HM32        -3.8190     3.2790     1.3390 hc         1 48M       0.050533
     57 HM33        -3.1880     3.8190     2.8880 hc         1 48M       0.050533
     58 H21         -1.6850    -5.0960     0.4030 h1         1 48M       0.056700
     59 H22         -0.4530    -6.2190     0.9770 h1         1 48M       0.056700
     60 H31         -0.0320    -3.8190     1.6630 h1         1 48M       0.074200
     61 H32          1.2970    -4.5410     0.7620 h1         1 48M       0.074200
     62 H41          1.7250    -3.5190    -1.7040 h1         1 48M       0.081200
     63 H42          0.1980    -2.9840    -2.4020 h1         1 48M       0.081200
     64 H7           0.7270     0.7850    -3.1100 h1         1 48M       0.083700
     65 H8           1.3510    -1.1950    -2.2360 h1         1 48M       0.072700
     66 H9          -3.1880     1.3530     2.8780 h1         1 48M       0.046700
     67 HN1         -0.5980    -6.7190    -1.3260 hn         1 48M       0.322500
@<TRIPOS>BOND
     1     1    36 2   
     2     1    38 1   
     3     2     5 ar  
     4     2     6 ar  
     5     2    39 1   
     6     3     7 ar  
     7     3     8 ar  
     8     3    38 1   
     9     4     9 ar  
    10     4    10 ar  
    11     4    36 1   
    12     5    11 ar  
    13     5    41 1   
    14     6    12 ar  
    15     6    42 1   
    16     7    13 ar  
    17     7    43 1   
    18     8    14 ar  
    19     8    44 1   
    20     9    15 ar  
    21     9    45 1   
    22    10    16 ar  
    23    10    37 1   
    24    11    17 ar  
    25    11    46 1   
    26    12    17 ar  
    27    12    47 1   
    28    13    18 ar  
    29    13    48 1   
    30    14    18 ar  
    31    14    21 1   
    32    15    19 ar  
    33    15    49 1   
    34    16    19 ar  
    35    16    50 1   
    36    17    20 1   
    37    18    51 1   
    38    19    22 1   
    39    22    25 3   
    40    23    40 1   
    41    23    52 1   
    42    23    53 1   
    43    23    54 1   
    44    24    40 1   
    45    24    55 1   
    46    24    56 1   
    47    24    57 1   
    48    26    27 1   
    49    26    28 2   
    50    26    33 1   
    51    27    29 1   
    52    27    67 1   
    53    29    31 1   
    54    29    58 1   
    55    29    59 1   
    56    30    31 1   
    57    30    33 1   
    58    30    34 1   
    59    31    60 1   
    60    31    61 1   
    61    32    34 1   
    62    32    36 1   
    63    32    39 1   
    64    33    62 1   
    65    33    63 1   
    66    34    35 2   
    67    37    40 1   
    68    38    39 1   
    69    38    64 1   
    70    39    65 1   
    71    40    66 1   
@<TRIPOS>SUBSTRUCTURE
     1 48M         1 TEMP              0 ****  ****    0 ROOT
