@<TRIPOS>MOLECULE
48N
   60    62     1     0     0
SMALL
No Charge or Current Charge


@<TRIPOS>ATOM
      1 O1          -1.2360    -4.3250    -2.5570 o          1 48N      -0.855000
      2 P1          -1.4220    -3.0790    -1.7550 p5         1 48N       1.463800
      3 O2          -1.7730    -1.9030    -2.6040 o          1 48N      -0.855000
      4 O3          -0.2630    -2.8020    -0.7270 os         1 48N      -0.681800
      5 P2           1.1760    -2.9240    -1.3550 p5         1 48N       1.464800
      6 O4           1.6940    -4.3260    -1.3480 o          1 48N      -0.854000
      7 O5           1.3320    -2.2450    -2.6750 o          1 48N      -0.854000
      8 O6           1.9230    -2.0580    -0.2190 os         1 48N      -0.565400
      9 C1           3.2740    -1.6390    -0.4430 c3         1 48N       0.205600
     10 C2           3.9980    -1.5090     0.9240 c3         1 48N       0.059300
     11 O7           4.0580    -2.7930     1.6180 oh         1 48N      -0.630000
     12 C3           5.4080    -0.8870     0.7130 c          1 48N       0.549100
     13 O8           6.4200    -1.5880     0.7000 o          1 48N      -0.536100
     14 C4           5.4560     0.6640     0.5290 c3         1 48N       0.003500
     15 C5           6.8010     1.1550    -0.0620 c3         1 48N      -0.073100
     16 N1           5.2010     1.3740     1.8040 n2         1 48N      -0.577900
     17 C6           4.6130     2.5440     1.8150 ce         1 48N       0.347200
     18 C7           4.3570     3.3390     3.1090 c          1 48N       0.622700
     19 O9           3.8030     4.4320     3.0200 o          1 48N      -0.721500
     20 O10          4.7020     2.8820     4.1970 o          1 48N      -0.721500
     21 O11         -2.5940    -3.3470    -0.6750 os         1 48N      -0.559400
     22 C8          -3.3230    -2.2850    -0.0330 c3         1 48N       0.220600
     23 C9          -2.4260    -1.4800     0.9660 c5         1 48N       0.157300
     24 C10         -3.1990    -0.9690     2.2220 c5         1 48N       0.096300
     25 O12         -2.3460    -0.5070     3.2750 oh         1 48N      -0.713000
     26 C11         -3.9690     0.2300     1.6020 c5         1 48N       0.065300
     27 O13         -4.3820     1.1610     2.6260 oh         1 48N      -0.706000
     28 C12         -2.9130     0.8060     0.5830 c5         1 48N       0.326300
     29 O14         -1.9460    -0.2500     0.3610 os         1 48N      -0.401000
     30 N2          -3.4400     1.2760    -0.6980 na         1 48N      -0.293300
     31 C13         -4.5380     2.0660    -0.9390 ca         1 48N       0.106500
     32 N3          -5.4690     2.5660    -0.0990 nb         1 48N      -0.214000
     33 C14         -6.4400     3.3190    -0.6670 ca         1 48N       0.143900
     34 N4          -6.5660     3.6190    -1.9810 nb         1 48N      -0.329000
     35 C15         -5.6230     3.1150    -2.7910 ca         1 48N       0.433900
     36 N5          -5.7510     3.4200    -4.1100 nv         1 48N      -1.074900
     37 C16         -4.5730     2.3150    -2.2880 ca         1 48N      -0.076600
     38 N6          -3.5190     1.7150    -2.9670 nc         1 48N      -0.563100
     39 C17         -2.8530     1.0990    -1.9680 cd         1 48N       0.466700
     40 H3           3.8170    -2.3560    -1.0730 h1         1 48N       0.012200
     41 H4           3.2800    -0.6690    -0.9570 h1         1 48N       0.012200
     42 H5           3.4320    -0.7870     1.5270 h1         1 48N       0.095700
     43 H6           4.8200    -3.2900     1.2440 ho         1 48N       0.438000
     44 H7           4.6700     0.9140    -0.1950 h1         1 48N       0.042700
     45 H8           6.7750     2.2360    -0.2450 hc         1 48N       0.032367
     46 H9           7.6330     0.9420     0.6210 hc         1 48N       0.032367
     47 H10          7.0050     0.6570    -1.0180 hc         1 48N       0.032367
     48 H11          4.2880     2.9990     0.8750 h4         1 48N      -0.059200
     49 H13         -3.7630    -1.6080    -0.7770 h1         1 48N       0.007700
     50 H14         -4.1570    -2.7250     0.5280 h1         1 48N       0.007700
     51 H15         -1.5760    -2.1040     1.2700 h1         1 48N       0.094700
     52 H16         -3.8910    -1.7310     2.6060 h1         1 48N       0.043700
     53 H17         -2.8080     0.3090     3.5900 ho         1 48N       0.498000
     54 H18         -4.8480    -0.1420     1.0540 h1         1 48N       0.073700
     55 H19         -4.9730     1.8250     2.1960 ho         1 48N       0.494000
     56 H20         -2.3970     1.6660     1.0270 h2         1 48N       0.093700
     57 H21         -7.1970     3.7240     0.0010 h5         1 48N       0.018100
     58 H22         -6.6580     3.7420    -4.4380 hn         1 48N       0.497000
     59 H23         -5.1890     2.8850    -4.7670 hn         1 48N       0.497000
     60 H24         -1.9350     0.5330    -2.0830 h5         1 48N       0.158800
@<TRIPOS>BOND
     1     1     2 1   
     2     2     3 1   
     3     2     4 1   
     4     2    21 1   
     5     4     5 1   
     6     5     6 1   
     7     5     7 1   
     8     5     8 1   
     9     8     9 1   
    10     9    10 1   
    11     9    40 1   
    12     9    41 1   
    13    10    11 1   
    14    10    12 1   
    15    10    42 1   
    16    11    43 1   
    17    12    13 2   
    18    12    14 1   
    19    14    15 1   
    20    14    16 1   
    21    14    44 1   
    22    15    45 1   
    23    15    46 1   
    24    15    47 1   
    25    16    17 2   
    26    17    18 1   
    27    17    48 1   
    28    18    19 1   
    29    18    20 1   
    30    21    22 1   
    31    22    23 1   
    32    22    49 1   
    33    22    50 1   
    34    23    24 1   
    35    23    29 1   
    36    23    51 1   
    37    24    25 1   
    38    24    26 1   
    39    24    52 1   
    40    25    53 1   
    41    26    27 1   
    42    26    28 1   
    43    26    54 1   
    44    27    55 1   
    45    28    29 1   
    46    28    30 1   
    47    28    56 1   
    48    30    31 1   
    49    30    39 1   
    50    31    32 ar  
    51    31    37 ar  
    52    32    33 ar  
    53    33    34 ar  
    54    33    57 1   
    55    34    35 ar  
    56    35    36 1   
    57    35    37 ar  
    58    36    58 1   
    59    36    59 1   
    60    37    38 1   
    61    38    39 2   
    62    39    60 1   
@<TRIPOS>SUBSTRUCTURE
     1 48N         1 TEMP              0 ****  ****    0 ROOT
