@<TRIPOS>MOLECULE
48N
   60    62     1     0     0
SMALL
bcc


@<TRIPOS>ATOM
      1 O1          -0.6350    -4.4360    -1.7730 o          1 48N      -0.855000
      2 P1          -1.0030    -3.0810    -1.2600 p5         1 48N       1.463800
      3 O2          -1.6230    -2.0710    -2.1810 o          1 48N      -0.855000
      4 O3           0.2600    -2.4160    -0.4570 os         1 48N      -0.681800
      5 P2           1.8240    -2.5720    -0.9330 p5         1 48N       1.464800
      6 O4           2.4530    -3.7560    -0.2710 o          1 48N      -0.854000
      7 O5           1.9470    -2.3690    -2.4100 o          1 48N      -0.854000
      8 O6           2.2920    -1.1990    -0.1460 os         1 48N      -0.542200
      9 C1           3.6610    -0.8840    -0.1560 c3         1 48N       0.182400
     10 C2           3.9690    -0.0370     1.0810 c3         1 48N       0.036100
     11 O7           3.6920    -0.7070     2.2710 oh         1 48N      -0.567800
     12 C3           5.4040     0.4570     1.0230 c          1 48N       0.549100
     13 O8           6.2260     0.0790     1.8200 o          1 48N      -0.536100
     14 C4           5.7560     1.4380    -0.0890 c3         1 48N       0.003500
     15 C5           6.6730     0.7540    -1.1030 c3         1 48N      -0.073100
     16 N1           6.4550     2.5540     0.5070 n2         1 48N      -0.577900
     17 C6           5.9730     3.7070     0.3320 ce         1 48N       0.347200
     18 C7           6.6320     4.9580     0.9050 c          1 48N       0.833300
     19 O9           5.9950     6.0080     0.6960 o          1 48N      -0.826800
     20 O10          7.7060     4.8160     1.5100 o          1 48N      -0.826800
     21 O11         -1.9270    -3.2270     0.0930 os         1 48N      -0.536200
     22 C8          -3.3210    -3.3720    -0.0380 c3         1 48N       0.197400
     23 C9          -4.0030    -2.6700     1.1220 c5         1 48N       0.134100
     24 C10         -5.5160    -2.6480     0.9590 c5         1 48N       0.073100
     25 O12         -6.1090    -2.5720     2.2290 oh         1 48N      -0.590800
     26 C11         -5.7050    -1.3390     0.1860 c5         1 48N       0.042100
     27 O13         -6.9680    -0.7570     0.3060 oh         1 48N      -0.583800
     28 C12         -4.6520    -0.4510     0.8510 c5         1 48N       0.273800
     29 O14         -3.5980    -1.3000     1.1950 os         1 48N      -0.354600
     30 N2          -4.1550     0.6050     0.0030 na         1 48N      -0.264000
     31 C13         -4.4710     1.9290     0.1000 ca         1 48N       0.434800
     32 N3          -5.2650     2.5280     0.9850 nb         1 48N      -0.740000
     33 C14         -5.3320     3.8310     0.7790 ca         1 48N       0.669900
     34 N4          -4.7290     4.5520    -0.1630 nb         1 48N      -0.855000
     35 C15         -3.9330     3.9360    -1.0440 ca         1 48N       0.762200
     36 N5          -3.3130     4.6570    -1.9810 nv         1 48N      -0.964500
     37 C16         -3.7750     2.5430    -0.9290 ca         1 48N      -0.207200
     38 N6          -3.0460     1.6250    -1.6400 nc         1 48N      -0.563100
     39 C17         -3.2970     0.4860    -1.0600 cd         1 48N       0.466700
     40 H3           4.2880    -1.7850    -0.1320 h1         1 48N       0.012200
     41 H4           3.9230    -0.3330    -1.0660 h1         1 48N       0.012200
     42 H5           3.3230     0.8500     1.0520 h1         1 48N       0.095700
     43 H6           4.3680    -1.3790     2.4160 ho         1 48N       0.399000
     44 H7           4.8320     1.7540    -0.5960 h1         1 48N       0.042700
     45 H8           6.8770     1.4330    -1.9300 hc         1 48N       0.032367
     46 H9           7.6180     0.4770    -0.6380 hc         1 48N       0.032367
     47 H10          6.2160    -0.1450    -1.5170 hc         1 48N       0.032367
     48 H11          5.0500     3.8710    -0.2400 h4         1 48N      -0.059200
     49 H13         -3.6790    -2.9660    -0.9900 h1         1 48N       0.007700
     50 H14         -3.6050    -4.4300    -0.0120 h1         1 48N       0.007700
     51 H15         -3.7160    -3.1580     2.0580 h1         1 48N       0.094700
     52 H16         -5.8800    -3.5160     0.3920 h1         1 48N       0.043700
     53 H17         -7.0050    -2.2350     2.1200 ho         1 48N       0.399000
     54 H18         -5.4330    -1.4990    -0.8660 h1         1 48N       0.073700
     55 H19         -7.5540    -1.1550    -0.3450 ho         1 48N       0.395000
     56 H20         -5.0800     0.0430     1.7310 h2         1 48N       0.093700
     57 H21         -5.9600     4.3910     1.4630 h5         1 48N       0.018100
     58 H22         -3.5070     5.6390    -2.0730 hn         1 48N       0.441800
     59 H23         -2.7730     4.2100    -2.7020 hn         1 48N       0.441800
     60 H24         -2.8610    -0.4630    -1.3520 h5         1 48N       0.158800
@<TRIPOS>BOND
     1     1     2 1   
     2     2     3 1   
     3     2     4 1   
     4     2    21 1   
     5     4     5 1   
     6     5     6 1   
     7     5     7 1   
     8     5     8 1   
     9     8     9 1   
    10     9    10 1   
    11     9    40 1   
    12     9    41 1   
    13    10    11 1   
    14    10    12 1   
    15    10    42 1   
    16    11    43 1   
    17    12    13 2   
    18    12    14 1   
    19    14    15 1   
    20    14    16 1   
    21    14    44 1   
    22    15    45 1   
    23    15    46 1   
    24    15    47 1   
    25    16    17 2   
    26    17    18 1   
    27    17    48 1   
    28    18    19 1   
    29    18    20 1   
    30    21    22 1   
    31    22    23 1   
    32    22    49 1   
    33    22    50 1   
    34    23    24 1   
    35    23    29 1   
    36    23    51 1   
    37    24    25 1   
    38    24    26 1   
    39    24    52 1   
    40    25    53 1   
    41    26    27 1   
    42    26    28 1   
    43    26    54 1   
    44    27    55 1   
    45    28    29 1   
    46    28    30 1   
    47    28    56 1   
    48    30    31 1   
    49    30    39 1   
    50    31    32 ar  
    51    31    37 ar  
    52    32    33 ar  
    53    33    34 ar  
    54    33    57 1   
    55    34    35 ar  
    56    35    36 1   
    57    35    37 ar  
    58    36    58 1   
    59    36    59 1   
    60    37    38 1   
    61    38    39 2   
    62    39    60 1   
@<TRIPOS>SUBSTRUCTURE
     1 48N         1 TEMP              0 ****  ****    0 ROOT
