@<TRIPOS>MOLECULE
48O
   41    42     1     0     0
SMALL
abcg2


@<TRIPOS>ATOM
      1 N1          -4.0000    -1.7760    -0.7750 n2         1 48O      -0.029200
      2 O1           3.5600    -0.4310     1.8100 o          1 48O      -0.531000
      3 C1           2.9530    -0.9280     0.8850 c          1 48O       0.626000
      4 N2           3.2100    -2.1990     0.4460 ns         1 48O      -0.469500
      5 C2           2.5900    -2.8940    -0.5820 c          1 48O       0.585200
      6 O2           2.9310    -4.0290    -0.8560 o          1 48O      -0.509000
      7 C3           1.5510    -2.1390    -1.2380 cc         1 48O      -0.375200
      8 C4           1.2860    -0.8880    -0.8330 cd         1 48O      -0.011400
      9 N3           1.9560    -0.2710     0.1870 n          1 48O      -0.316000
     10 C5           1.5930     1.0800     0.5700 c5         1 48O       0.334700
     11 O3           0.2190     1.1260     0.8460 os         1 48O      -0.477000
     12 C6           1.8130     2.1280    -0.5140 c5         1 48O       0.086300
     13 O4           3.1610     2.4820    -0.5710 oh         1 48O      -0.684000
     14 C7           0.8700     3.2340    -0.0260 c5         1 48O       0.118300
     15 O5           1.4400     3.9460     1.0410 oh         1 48O      -0.701000
     16 C8          -0.3040     2.4130     0.5030 c5         1 48O       0.139300
     17 C9          -1.4170     2.2680    -0.5270 c3         1 48O       0.081000
     18 N4          -2.4020     1.3020    -0.1040 ns         1 48O      -0.467900
     19 C10         -2.4860     0.0730    -0.6120 c          1 48O       0.620100
     20 O6          -1.8980    -0.3420    -1.5930 o          1 48O      -0.545100
     21 C11         -3.3690    -0.8640     0.2060 c3         1 48O       0.037500
     22 C12         -2.5100    -1.6850     1.1610 c3         1 48O      -0.117100
     23 N5          -4.9440    -2.4100    -0.5830 n1         1 48O       0.228000
     24 H1           3.9440    -2.6870     0.9470 hn         1 48O       0.352500
     25 H2           0.9940    -2.5850    -2.0470 ha         1 48O       0.223000
     26 H3           0.5030    -0.3130    -1.3030 h4         1 48O       0.209000
     27 H4           2.1880     1.3290     1.4510 h2         1 48O       0.134700
     28 H5           1.4530     1.7520    -1.4820 h1         1 48O       0.052700
     29 H6           3.3380     2.9020    -1.4180 ho         1 48O       0.525000
     30 H7           0.5650     3.9020    -0.8420 h1         1 48O       0.061700
     31 H8           2.3310     4.2090     0.7810 ho         1 48O       0.537000
     32 H9          -0.7140     2.8750     1.4070 h1         1 48O       0.095700
     33 H10         -1.8980     3.2380    -0.6620 h1         1 48O       0.082200
     34 H11         -1.0270     1.9620    -1.4970 h1         1 48O       0.082200
     35 H12         -2.9710     1.5430     0.6940 hn         1 48O       0.327500
     36 H14         -4.1690    -0.3470     0.7390 h1         1 48O       0.103700
     37 H15         -1.9630    -0.9960     1.8020 hc         1 48O       0.091033
     38 H16         -3.1280    -2.3220     1.7900 hc         1 48O       0.091033
     39 H17         -1.7920    -2.2950     0.6160 hc         1 48O       0.091033
     40 NAX         -5.9610    -2.9830    -0.5500 n2         1 48O      -0.210400
     41 H13         -5.9200    -3.9470    -0.1970 hn         1 48O       0.526400
@<TRIPOS>BOND
     1     1    21 1   
     2     1    23 2   
     3     2     3 2   
     4     3     4 1   
     5     3     9 1   
     6     4     5 1   
     7     4    24 1   
     8     5     6 2   
     9     5     7 1   
    10     7     8 2   
    11     7    25 1   
    12     8     9 1   
    13     8    26 1   
    14     9    10 1   
    15    10    11 1   
    16    10    12 1   
    17    10    27 1   
    18    11    16 1   
    19    12    13 1   
    20    12    14 1   
    21    12    28 1   
    22    13    29 1   
    23    14    15 1   
    24    14    16 1   
    25    14    30 1   
    26    15    31 1   
    27    16    17 1   
    28    16    32 1   
    29    17    18 1   
    30    17    33 1   
    31    17    34 1   
    32    18    19 1   
    33    18    35 1   
    34    19    20 2   
    35    19    21 1   
    36    21    22 1   
    37    21    36 1   
    38    22    37 1   
    39    22    38 1   
    40    22    39 1   
    41    23    40 2   
    42    40    41 1   
@<TRIPOS>SUBSTRUCTURE
     1 48O         1 TEMP              0 ****  ****    0 ROOT
