@<TRIPOS>MOLECULE
48O
   41    42     1     0     0
SMALL
No Charge or Current Charge


@<TRIPOS>ATOM
      1 N1          -4.5890    -1.8600    -0.4490 n2         1 48O      -0.029200
      2 O1           4.1700     0.2510     1.4210 o          1 48O      -0.531000
      3 C1           3.5610    -0.4670     0.6460 c          1 48O       0.626000
      4 N2           4.1040    -1.6370     0.2140 ns         1 48O      -0.469500
      5 C2           3.5690    -2.5470    -0.6390 c          1 48O       0.585200
      6 O2           4.1540    -3.5680    -0.9540 o          1 48O      -0.509000
      7 C3           2.2430    -2.1770    -1.1270 cc         1 48O      -0.375200
      8 C4           1.6240    -1.0110    -0.7400 cd         1 48O      -0.011400
      9 N3           2.2830    -0.1530     0.1410 n          1 48O      -0.316000
     10 C5           1.6450     1.1150     0.5830 c5         1 48O       0.334700
     11 O3           0.2330     0.9390     0.8020 os         1 48O      -0.477000
     12 C6           1.7090     2.1320    -0.6030 c5         1 48O       0.086300
     13 O4           2.9950     2.7530    -0.8110 oh         1 48O      -0.684000
     14 C7           0.6700     3.1600    -0.0720 c5         1 48O       0.118300
     15 O5           1.2950     3.9990     0.9070 oh         1 48O      -0.701000
     16 C8          -0.4240     2.2120     0.5460 c5         1 48O       0.139300
     17 C9          -1.6480     1.9760    -0.3780 c3         1 48O       0.081000
     18 N4          -2.5990     0.9740     0.1330 ns         1 48O      -0.467900
     19 C10         -2.6400    -0.3470    -0.2740 c          1 48O       0.620100
     20 O6          -1.9440    -0.7630    -1.1920 o          1 48O      -0.545100
     21 C11         -3.6340    -1.2510     0.4890 c3         1 48O       0.037500
     22 C12         -2.9010    -2.3660     1.2770 c3         1 48O      -0.117100
     23 N5          -5.5880    -1.1900    -0.7540 n1         1 48O       0.228000
     24 H1           5.0180    -1.8560     0.5760 hn         1 48O       0.352500
     25 H2           1.7780    -2.8800    -1.8100 ha         1 48O       0.223000
     26 H3           0.6390    -0.6840    -1.0650 h4         1 48O       0.209000
     27 H4           2.1400     1.4970     1.4870 h2         1 48O       0.134700
     28 H5           1.3460     1.6730    -1.5340 h1         1 48O       0.052700
     29 H6           3.5460     2.1290    -1.3410 ho         1 48O       0.525000
     30 H7           0.2620     3.7700    -0.8900 h1         1 48O       0.061700
     31 H8           2.2290     4.0760     0.5840 ho         1 48O       0.537000
     32 H9          -0.7890     2.6180     1.5000 h1         1 48O       0.095700
     33 H10         -2.1800     2.9290    -0.5010 h1         1 48O       0.082200
     34 H11         -1.2920     1.6730    -1.3720 h1         1 48O       0.082200
     35 H12         -3.2130     1.2410     0.8950 hn         1 48O       0.327500
     36 H14         -4.1660    -0.6220     1.2150 h1         1 48O       0.103700
     37 H15         -2.1850    -1.9320     1.9860 hc         1 48O       0.091033
     38 H16         -3.6160    -2.9740     1.8470 hc         1 48O       0.091033
     39 H17         -2.3500    -3.0300     0.6000 hc         1 48O       0.091033
     40 NAX         -6.5670    -1.9350    -0.8870 n2         1 48O      -0.210400
     41 H13         -7.3120    -1.4340    -1.3860 hn         1 48O       0.526400
@<TRIPOS>BOND
     1     1    21 1   
     2     1    23 2   
     3     2     3 2   
     4     3     4 1   
     5     3     9 1   
     6     4     5 1   
     7     4    24 1   
     8     5     6 2   
     9     5     7 1   
    10     7     8 2   
    11     7    25 1   
    12     8     9 1   
    13     8    26 1   
    14     9    10 1   
    15    10    11 1   
    16    10    12 1   
    17    10    27 1   
    18    11    16 1   
    19    12    13 1   
    20    12    14 1   
    21    12    28 1   
    22    13    29 1   
    23    14    15 1   
    24    14    16 1   
    25    14    30 1   
    26    15    31 1   
    27    16    17 1   
    28    16    32 1   
    29    17    18 1   
    30    17    33 1   
    31    17    34 1   
    32    18    19 1   
    33    18    35 1   
    34    19    20 2   
    35    19    21 1   
    36    21    22 1   
    37    21    36 1   
    38    22    37 1   
    39    22    38 1   
    40    22    39 1   
    41    23    40 2   
    42    40    41 1   
@<TRIPOS>SUBSTRUCTURE
     1 48O         1 TEMP              0 ****  ****    0 ROOT
