@<TRIPOS>MOLECULE
48P
   25    25     1     0     0
SMALL
No Charge or Current Charge


@<TRIPOS>ATOM
      1 OAE          3.1540     0.3470    -0.2520 oh         1 48P      -0.683000
      2 CAM          1.8350     0.3550     0.3200 c6         1 48P       0.183500
      3 CAL          1.0530     1.6030    -0.2030 c6         1 48P       0.166300
      4 OAD          1.6480     2.8140     0.2920 oh         1 48P      -0.673000
      5 CAI         -0.4330     1.5170     0.2030 c6         1 48P      -0.067400
      6 CAN         -1.1130     0.2680    -0.4280 c6         1 48P       0.045200
      7 CAJ         -2.5360     0.0550     0.2470 c          1 48P       0.702000
      8 OAC         -2.6110    -0.7230     1.1890 o          1 48P      -0.705500
      9 OAA         -3.5010     0.2660    -0.4820 o          1 48P      -0.705500
     10 OAF         -1.2940     0.5110    -1.8460 oh         1 48P      -0.700000
     11 CAG         -0.2180    -0.9710    -0.2890 c2         1 48P      -0.080200
     12 CAK          1.0950    -0.9570     0.0350 c2         1 48P      -0.220400
     13 CAH          1.9010    -2.2370     0.2050 c3         1 48P       0.219800
     14 OAB          1.1780    -3.1730     1.0040 oh         1 48P      -0.648000
     15 HAE          3.6520    -0.3620     0.2060 ho         1 48P       0.426000
     16 HAM          1.9150     0.4490     1.4140 h1         1 48P       0.036700
     17 HAL          1.1040     1.5960    -1.3030 h1         1 48P       0.055700
     18 HAD          2.6150     2.6880     0.1700 ho         1 48P       0.432000
     19 HAI1        -0.5060     1.4640     1.2990 hc         1 48P       0.059200
     20 HAI2        -0.9650     2.4300    -0.0990 hc         1 48P       0.059200
     21 HAF         -2.2800     0.5360    -1.9460 ho         1 48P       0.478000
     22 HAG         -0.7240    -1.9230    -0.4620 ha         1 48P       0.190000
     23 HAH1         2.1070    -2.6680    -0.7840 h1         1 48P       0.002700
     24 HAH2         2.8670    -2.0270     0.6830 h1         1 48P       0.002700
     25 HAB          1.7400    -3.9750     1.0740 ho         1 48P       0.423000
@<TRIPOS>BOND
     1     1     2 1   
     2     1    15 1   
     3     2     3 1   
     4     2    12 1   
     5     2    16 1   
     6     3     4 1   
     7     3     5 1   
     8     3    17 1   
     9     4    18 1   
    10     5     6 1   
    11     5    19 1   
    12     5    20 1   
    13     6     7 1   
    14     6    10 1   
    15     6    11 1   
    16     7     8 1   
    17     7     9 1   
    18    10    21 1   
    19    11    12 2   
    20    11    22 1   
    21    12    13 1   
    22    13    14 1   
    23    13    23 1   
    24    13    24 1   
    25    14    25 1   
@<TRIPOS>SUBSTRUCTURE
     1 48P         1 TEMP              0 ****  ****    0 ROOT
