@<TRIPOS>MOLECULE
48P
   25    25     1     0     0
SMALL
bcc


@<TRIPOS>ATOM
      1 OAE          3.1110     0.2890    -0.1380 oh         1 48P      -0.620800
      2 CAM          1.7870     0.3200     0.3710 c6         1 48P       0.160300
      3 CAL          1.0710     1.5000    -0.2680 c6         1 48P       0.143100
      4 OAD          1.6430     2.7260     0.1300 oh         1 48P      -0.610800
      5 CAI         -0.3850     1.4780     0.1470 c6         1 48P      -0.067400
      6 CAN         -1.0900     0.2390    -0.4110 c6         1 48P       0.022000
      7 CAJ         -2.4540     0.0560     0.3150 c          1 48P       0.912600
      8 OAC         -2.4350    -0.2090     1.5240 o          1 48P      -0.810800
      9 OAA         -3.4580     0.2050    -0.4200 o          1 48P      -0.810800
     10 OAF         -1.3490     0.3900    -1.7920 oh         1 48P      -0.637800
     11 CAG         -0.2430    -0.9890    -0.2170 c2         1 48P      -0.030200
     12 CAK          1.0480    -0.9720     0.1060 c2         1 48P      -0.220400
     13 CAH          1.8660    -2.2170     0.2840 c3         1 48P       0.196600
     14 OAB          1.0580    -3.3640     0.2150 oh         1 48P      -0.585800
     15 HAE          3.7150     0.0420     0.5670 ho         1 48P       0.387000
     16 HAM          1.8110     0.4870     1.4590 h1         1 48P       0.036700
     17 HAL          1.1340     1.3820    -1.3610 h1         1 48P       0.055700
     18 HAD          2.5810     2.6940    -0.0880 ho         1 48P       0.393000
     19 HAI1        -0.4470     1.4780     1.2390 hc         1 48P       0.059200
     20 HAI2        -0.8970     2.3770    -0.2080 hc         1 48P       0.059200
     21 HAF         -2.3260     0.4320    -1.8080 ho         1 48P       0.439000
     22 HAG         -0.7360    -1.9390    -0.3930 ha         1 48P       0.140000
     23 HAH1         2.6520    -2.2380    -0.4810 h1         1 48P       0.002700
     24 HAH2         2.3900    -2.1540     1.2520 h1         1 48P       0.002700
     25 HAB          1.6340    -4.1330     0.2240 ho         1 48P       0.384000
@<TRIPOS>BOND
     1     1     2 1   
     2     1    15 1   
     3     2     3 1   
     4     2    12 1   
     5     2    16 1   
     6     3     4 1   
     7     3     5 1   
     8     3    17 1   
     9     4    18 1   
    10     5     6 1   
    11     5    19 1   
    12     5    20 1   
    13     6     7 1   
    14     6    10 1   
    15     6    11 1   
    16     7     8 1   
    17     7     9 1   
    18    10    21 1   
    19    11    12 2   
    20    11    22 1   
    21    12    13 1   
    22    13    14 1   
    23    13    23 1   
    24    13    24 1   
    25    14    25 1   
@<TRIPOS>SUBSTRUCTURE
     1 48P         1 TEMP              0 ****  ****    0 ROOT
