@<TRIPOS>MOLECULE
48Q
   99   102     1     0     0
SMALL
bcc


@<TRIPOS>ATOM
      1 OAW          0.1460     1.2810    -2.0480 o          1 48Q      -0.608100
      2 CAV          0.6290     0.3590    -1.3990 c          1 48Q       0.691700
      3 CAU          1.8790     0.5460    -0.6050 ca         1 48Q      -0.126600
      4 CAH          2.1660     1.8270    -0.1410 ca         1 48Q      -0.136000
      5 CAT          2.7440    -0.5060    -0.3450 ca         1 48Q      -0.126000
      6 CAJ          3.8780    -0.2750     0.4270 ca         1 48Q      -0.117600
      7 CAK          4.8290    -1.3940     0.7310 c          1 48Q       0.679700
      8 NAM          4.3330    -2.4650     1.3810 n          1 48Q      -0.470800
      9 CAN          5.2110    -3.5990     1.6330 c3         1 48Q       0.098000
     10 CAO          6.0210    -3.4660     2.9180 c3         1 48Q      -0.098900
     11 CAP          6.8960    -4.6880     3.1520 c3         1 48Q      -0.090100
     12 CAQ          3.0350    -2.4950     2.0430 c3         1 48Q       0.098000
     13 CAR          2.0220    -3.4300     1.3880 c3         1 48Q      -0.098900
     14 CAS          0.6180    -3.1950     1.9270 c3         1 48Q      -0.090100
     15 OAL          5.9970    -1.3100     0.3730 o          1 48Q      -0.592100
     16 CAI          4.1620     0.9940     0.8950 ca         1 48Q      -0.114000
     17 CAG          3.3080     2.0780     0.6270 ca         1 48Q       0.157600
     18 NAF          3.5860     3.3310     1.1510 nh         1 48Q      -0.657000
     19 CAE          2.5680     4.3620     1.0360 c6         1 48Q       0.200800
     20 CAD          2.8170     5.4930     2.0230 c6         1 48Q      -0.080900
     21 CAC          4.2150     6.0720     1.8670 c6         1 48Q      -0.075400
     22 CAB          5.2440     4.9570     1.9810 c6         1 48Q      -0.080900
     23 CAA          4.9460     3.8420     0.9920 c6         1 48Q       0.200800
     24 NAX          0.0800    -0.8710    -1.3170 ns         1 48Q      -0.489100
     25 CAY         -1.0100    -1.4140    -2.0340 c2         1 48Q       0.004400
     26 CAZ         -0.9630    -2.7030    -2.3890 ce         1 48Q      -0.150200
     27 CBA          0.1840    -3.6070    -2.2070 ca         1 48Q      -0.060800
     28 CBF         -0.0120    -4.8630    -1.6310 ca         1 48Q      -0.125000
     29 CBE          1.0530    -5.7310    -1.4420 ca         1 48Q      -0.129500
     30 CBD          2.3330    -5.3640    -1.8350 ca         1 48Q      -0.126000
     31 CBC          2.5380    -4.1250    -2.4280 ca         1 48Q      -0.129500
     32 CBB          1.4740    -3.2550    -2.6160 ca         1 48Q      -0.125000
     33 CBG         -2.2660    -0.5950    -2.2410 c3         1 48Q       0.188300
     34 OBH         -2.1240     0.4170    -3.2080 oh         1 48Q      -0.602800
     35 CBI         -2.8110    -0.0760    -0.9090 c3         1 48Q       0.142800
     36 NBJ         -4.1220     0.4990    -1.1210 n7         1 48Q      -0.823200
     37 CBK         -4.7980     1.0770     0.0380 c3         1 48Q       0.246500
     38 CBL         -4.8760     0.0380     1.1640 c3         1 48Q      -0.102600
     39 CBM         -4.0710     2.3300     0.5500 c3         1 48Q      -0.102600
     40 CBN         -6.2340     1.4150    -0.3710 ca         1 48Q      -0.040300
     41 CBP         -7.0100     2.2490     0.4250 ca         1 48Q      -0.165000
     42 CBQ         -8.3370     2.5350     0.1020 ca         1 48Q       0.133100
     43 CBR         -8.9070     1.9800    -1.0410 ca         1 48Q      -0.214000
     44 CBS         -8.1320     1.1430    -1.8330 ca         1 48Q      -0.098000
     45 CBO         -6.8150     0.8560    -1.5110 ca         1 48Q      -0.143000
     46 OBT         -8.9870     3.3560     0.9530 os         1 48Q      -0.322900
     47 CBU        -10.3340     3.6780     0.6790 c3         1 48Q       0.127700
     48 H1           1.4830     2.6250    -0.3920 ha         1 48Q       0.156000
     49 H2           2.5830    -1.4950    -0.7560 ha         1 48Q       0.143000
     50 H3           4.5890    -4.4960     1.6820 h1         1 48Q       0.053200
     51 H4           5.8780    -3.7290     0.7810 h1         1 48Q       0.053200
     52 H5           6.6410    -2.5680     2.8650 hc         1 48Q       0.047700
     53 H6           5.3440    -3.3320     3.7670 hc         1 48Q       0.047700
     54 H7           7.6200    -4.8190     2.3460 hc         1 48Q       0.034867
     55 H8           7.4540    -4.6010     4.0840 hc         1 48Q       0.034867
     56 H9           6.2990    -5.6000     3.2100 hc         1 48Q       0.034867
     57 H10          3.1910    -2.8010     3.0810 h1         1 48Q       0.053200
     58 H11          2.6330    -1.4840     2.0910 h1         1 48Q       0.053200
     59 H12          2.0300    -3.2970     0.3040 hc         1 48Q       0.047700
     60 H13          2.3080    -4.4700     1.5550 hc         1 48Q       0.047700
     61 H14         -0.0930    -3.8860     1.4750 hc         1 48Q       0.034867
     62 H15          0.5730    -3.3330     3.0080 hc         1 48Q       0.034867
     63 H16          0.2730    -2.1790     1.7150 hc         1 48Q       0.034867
     64 H17          5.0370     1.1370     1.5150 ha         1 48Q       0.150000
     65 H18          2.5250     4.7690     0.0140 h1         1 48Q       0.041200
     66 H19          1.5930     3.9230     1.2490 h1         1 48Q       0.041200
     67 H20          2.0560     6.2600     1.8690 hc         1 48Q       0.049950
     68 H21          2.6850     5.1140     3.0410 hc         1 48Q       0.049950
     69 H22          4.3040     6.5530     0.8870 hc         1 48Q       0.043700
     70 H23          4.3970     6.8450     2.6150 hc         1 48Q       0.043700
     71 H24          6.2510     5.3320     1.7900 hc         1 48Q       0.049950
     72 H25          5.2400     4.5480     2.9950 hc         1 48Q       0.049950
     73 H26          5.6630     3.0360     1.1300 h1         1 48Q       0.041200
     74 H27          5.0860     4.2160    -0.0340 h1         1 48Q       0.041200
     75 H28          0.5700    -1.5390    -0.7400 hn         1 48Q       0.326500
     76 H29         -1.8680    -3.1410    -2.7950 ha         1 48Q       0.147000
     77 H30         -1.0070    -5.1570    -1.3190 ha         1 48Q       0.137000
     78 H31          0.8810    -6.6970    -0.9840 ha         1 48Q       0.135000
     79 H32          3.1640    -6.0400    -1.6860 ha         1 48Q       0.133000
     80 H33          3.5300    -3.8330    -2.7490 ha         1 48Q       0.135000
     81 H34          1.6450    -2.3030    -3.1060 ha         1 48Q       0.137000
     82 H35         -3.0130    -1.2850    -2.6410 h1         1 48Q       0.084700
     83 H36         -1.3610     0.9550    -2.9310 ho         1 48Q       0.440000
     84 H37         -2.8920    -0.9320    -0.2360 h1         1 48Q       0.034700
     85 H38         -2.0940     0.6170    -0.4450 h1         1 48Q       0.034700
     86 H39         -4.0480     1.2080    -1.8430 hn         1 48Q       0.377800
     87 H41         -3.8930    -0.1840     1.5820 hc         1 48Q       0.039867
     88 H42         -5.4950     0.4090     1.9800 hc         1 48Q       0.039867
     89 H43         -5.3140    -0.8940     0.8030 hc         1 48Q       0.039867
     90 H44         -4.0690     3.1170    -0.2070 hc         1 48Q       0.039867
     91 H45         -4.5220     2.7350     1.4560 hc         1 48Q       0.039867
     92 H46         -3.0340     2.0940     0.7920 hc         1 48Q       0.039867
     93 H47         -6.6040     2.6980     1.3230 ha         1 48Q       0.140000
     94 H48         -9.9310     2.1830    -1.3240 ha         1 48Q       0.133000
     95 H49         -8.5720     0.7070    -2.7200 ha         1 48Q       0.128000
     96 H50         -6.2360     0.1950    -2.1390 ha         1 48Q       0.153000
     97 H51        -10.4450     4.1990    -0.2760 h1         1 48Q       0.038700
     98 H52        -10.9740     2.7910     0.6710 h1         1 48Q       0.038700
     99 H53        -10.6640     4.3400     1.4770 h1         1 48Q       0.038700
@<TRIPOS>BOND
     1     1     2 2   
     2     2     3 1   
     3     2    24 1   
     4     3     4 ar  
     5     3     5 ar  
     6     4    17 ar  
     7     4    48 1   
     8     5     6 ar  
     9     5    49 1   
    10     6     7 1   
    11     6    16 ar  
    12     7     8 1   
    13     7    15 2   
    14     8     9 1   
    15     8    12 1   
    16     9    10 1   
    17     9    50 1   
    18     9    51 1   
    19    10    11 1   
    20    10    52 1   
    21    10    53 1   
    22    11    54 1   
    23    11    55 1   
    24    11    56 1   
    25    12    13 1   
    26    12    57 1   
    27    12    58 1   
    28    13    14 1   
    29    13    59 1   
    30    13    60 1   
    31    14    61 1   
    32    14    62 1   
    33    14    63 1   
    34    16    17 ar  
    35    16    64 1   
    36    17    18 1   
    37    18    19 1   
    38    18    23 1   
    39    19    20 1   
    40    19    65 1   
    41    19    66 1   
    42    20    21 1   
    43    20    67 1   
    44    20    68 1   
    45    21    22 1   
    46    21    69 1   
    47    21    70 1   
    48    22    23 1   
    49    22    71 1   
    50    22    72 1   
    51    23    73 1   
    52    23    74 1   
    53    24    25 1   
    54    24    75 1   
    55    25    26 2   
    56    25    33 1   
    57    26    27 1   
    58    26    76 1   
    59    27    28 ar  
    60    27    32 ar  
    61    28    29 ar  
    62    28    77 1   
    63    29    30 ar  
    64    29    78 1   
    65    30    31 ar  
    66    30    79 1   
    67    31    32 ar  
    68    31    80 1   
    69    32    81 1   
    70    33    34 1   
    71    33    35 1   
    72    33    82 1   
    73    34    83 1   
    74    35    36 1   
    75    35    84 1   
    76    35    85 1   
    77    36    37 1   
    78    36    86 1   
    79    37    38 1   
    80    37    39 1   
    81    37    40 1   
    82    38    87 1   
    83    38    88 1   
    84    38    89 1   
    85    39    90 1   
    86    39    91 1   
    87    39    92 1   
    88    40    41 ar  
    89    40    45 ar  
    90    41    42 ar  
    91    41    93 1   
    92    42    43 ar  
    93    42    46 1   
    94    43    44 ar  
    95    43    94 1   
    96    44    45 ar  
    97    44    95 1   
    98    45    96 1   
    99    46    47 1   
   100    47    97 1   
   101    47    98 1   
   102    47    99 1   
@<TRIPOS>SUBSTRUCTURE
     1 48Q         1 TEMP              0 ****  ****    0 ROOT
