@<TRIPOS>MOLECULE
48Q
   99   102     1     0     0
SMALL
No Charge or Current Charge


@<TRIPOS>ATOM
      1 OAW         -0.2260     1.3090    -1.6460 o          1 48Q      -0.608100
      2 CAV          0.4620     0.4050    -1.1910 c          1 48Q       0.624700
      3 CAU          1.7370     0.6880    -0.4170 ca         1 48Q      -0.126600
      4 CAH          2.0700     2.0200    -0.0840 ca         1 48Q      -0.118000
      5 CAT          2.6220    -0.3440    -0.0210 ca         1 48Q      -0.108000
      6 CAJ          3.7930    -0.0620     0.7140 ca         1 48Q      -0.117600
      7 CAK          4.7450    -1.1660     1.1330 c          1 48Q       0.612700
      8 NAM          4.2120    -2.4560     1.3880 n          1 48Q      -0.403800
      9 CAN          5.1240    -3.6310     1.3870 c3         1 48Q       0.098000
     10 CAO          5.6440    -4.0440     2.7820 c3         1 48Q      -0.098900
     11 CAP          6.6700    -5.1920     2.7200 c3         1 48Q      -0.090100
     12 CAQ          2.9340    -2.5950     2.1430 c3         1 48Q       0.098000
     13 CAR          1.9950    -3.6900     1.5940 c3         1 48Q      -0.098900
     14 CAS          0.6090    -3.6890     2.2640 c3         1 48Q      -0.090100
     15 OAL          5.9540    -0.9650     1.1520 o          1 48Q      -0.592100
     16 CAI          4.1040     1.2810     1.0090 ca         1 48Q      -0.096000
     17 CAG          3.2500     2.3270     0.6210 ca         1 48Q       0.296000
     18 NAF          3.5860     3.6640     0.9470 nh         1 48Q      -0.795400
     19 CAE          2.5300     4.6860     1.1970 c6         1 48Q       0.200800
     20 CAD          3.0240     5.7650     2.1930 c6         1 48Q      -0.080900
     21 CAC          4.3520     6.4030     1.7220 c6         1 48Q      -0.075400
     22 CAB          5.4090     5.3020     1.4680 c6         1 48Q      -0.080900
     23 CAA          4.8810     4.2350     0.4790 c6         1 48Q       0.200800
     24 NAX          0.1540    -0.9340    -1.3690 ns         1 48Q      -0.422100
     25 CAY         -0.9220    -1.6060    -2.0090 c2         1 48Q       0.004400
     26 CAZ         -0.7650    -2.9110    -2.3350 ce         1 48Q      -0.200200
     27 CBA          0.4670    -3.7240    -2.1220 ca         1 48Q      -0.060800
     28 CBF          0.3590    -4.9980    -1.5320 ca         1 48Q      -0.107000
     29 CBE          1.5060    -5.7800    -1.3130 ca         1 48Q      -0.111500
     30 CBD          2.7710    -5.2950    -1.6880 ca         1 48Q      -0.108000
     31 CBC          2.8850    -4.0320    -2.2930 ca         1 48Q      -0.111500
     32 CBB          1.7360    -3.2530    -2.5160 ca         1 48Q      -0.107000
     33 CBG         -2.2520    -0.8620    -2.2180 c3         1 48Q       0.211500
     34 OBH         -2.0860     0.2530    -3.1100 oh         1 48Q      -0.665000
     35 CBI         -2.9090    -0.4140    -0.8770 c3         1 48Q       0.142800
     36 NBJ         -4.2080     0.2760    -1.1130 n7         1 48Q      -0.878400
     37 CBK         -4.8980     0.9640     0.0100 c3         1 48Q       0.246500
     38 CBL         -5.0380    -0.0120     1.2080 c3         1 48Q      -0.102600
     39 CBM         -4.0430     2.2000     0.4070 c3         1 48Q      -0.102600
     40 CBN         -6.3170     1.4260    -0.4300 ca         1 48Q      -0.040300
     41 CBP         -7.1030     2.2240     0.4380 ca         1 48Q      -0.147000
     42 CBQ         -8.3900     2.6550     0.0780 ca         1 48Q       0.133100
     43 CBR         -8.9250     2.2850    -1.1720 ca         1 48Q      -0.196000
     44 CBS         -8.1710     1.4850    -2.0420 ca         1 48Q      -0.080000
     45 CBO         -6.8840     1.0560    -1.6760 ca         1 48Q      -0.125000
     46 OBT         -9.0840     3.4320     0.9820 os         1 48Q      -0.346100
     47 CBU        -10.4090     3.9240     0.7130 c3         1 48Q       0.150900
     48 H1           1.4120     2.8270    -0.3930 ha         1 48Q       0.138000
     49 H2           2.4280    -1.3750    -0.2990 ha         1 48Q       0.125000
     50 H3           4.6010    -4.4820     0.9340 h1         1 48Q       0.053200
     51 H4           5.9830    -3.4200     0.7360 h1         1 48Q       0.053200
     52 H5           6.1070    -3.1770     3.2670 hc         1 48Q       0.047700
     53 H6           4.8050    -4.3590     3.4130 hc         1 48Q       0.047700
     54 H7           7.5440    -4.9000     2.1270 hc         1 48Q       0.034867
     55 H8           7.0110    -5.4550     3.7280 hc         1 48Q       0.034867
     56 H9           6.2250    -6.0850     2.2640 hc         1 48Q       0.034867
     57 H10          3.1650    -2.8200     3.1910 h1         1 48Q       0.053200
     58 H11          2.3940    -1.6420     2.1560 h1         1 48Q       0.053200
     59 H12          1.8640    -3.5400     0.5180 hc         1 48Q       0.047700
     60 H13          2.4540    -4.6770     1.7280 hc         1 48Q       0.047700
     61 H14         -0.0200    -4.4810     1.8400 hc         1 48Q       0.034867
     62 H15          0.6990    -3.8610     3.3430 hc         1 48Q       0.034867
     63 H16          0.1030    -2.7290     2.1060 hc         1 48Q       0.034867
     64 H17          5.0080     1.5150     1.5630 ha         1 48Q       0.132000
     65 H18          2.2430     5.1690     0.2510 h1         1 48Q       0.041200
     66 H19          1.6290     4.2130     1.6150 h1         1 48Q       0.041200
     67 H20          2.2550     6.5390     2.3120 hc         1 48Q       0.049950
     68 H21          3.1640     5.3080     3.1830 hc         1 48Q       0.049950
     69 H22          4.1830     6.9770     0.8000 hc         1 48Q       0.043700
     70 H23          4.7180     7.1130     2.4760 hc         1 48Q       0.043700
     71 H24          6.3310     5.7500     1.0740 hc         1 48Q       0.049950
     72 H25          5.6760     4.8190     2.4180 hc         1 48Q       0.049950
     73 H26          5.6420     3.4480     0.3700 h1         1 48Q       0.041200
     74 H27          4.7480     4.6950    -0.5120 h1         1 48Q       0.041200
     75 H28          0.8500    -1.5540    -0.9810 hn         1 48Q       0.326500
     76 H29         -1.6000    -3.4680    -2.7630 ha         1 48Q       0.197000
     77 H30         -0.6150    -5.3770    -1.2320 ha         1 48Q       0.119000
     78 H31          1.4160    -6.7600    -0.8480 ha         1 48Q       0.117000
     79 H32          3.6590    -5.8990    -1.5150 ha         1 48Q       0.115000
     80 H33          3.8620    -3.6600    -2.5930 ha         1 48Q       0.117000
     81 H34          1.8350    -2.2870    -3.0060 ha         1 48Q       0.119000
     82 H35         -2.9570    -1.5700    -2.6760 h1         1 48Q       0.084700
     83 H36         -1.3830     0.8040    -2.6690 ho         1 48Q       0.479000
     84 H37         -3.0570    -1.3060    -0.2530 h1         1 48Q       0.034700
     85 H38         -2.2080     0.2380    -0.3450 h1         1 48Q       0.034700
     86 H39         -4.0500     0.9710    -1.8520 hn         1 48Q       0.433000
     87 H41         -4.0610    -0.3040     1.6090 hc         1 48Q       0.039867
     88 H42         -5.5990     0.4510     2.0280 hc         1 48Q       0.039867
     89 H43         -5.5740    -0.9200     0.9060 hc         1 48Q       0.039867
     90 H44         -3.9380     2.8870    -0.4410 hc         1 48Q       0.039867
     91 H45         -4.5000     2.7560     1.2330 hc         1 48Q       0.039867
     92 H46         -3.0410     1.9140     0.7420 hc         1 48Q       0.039867
     93 H47         -6.7210     2.5130     1.4120 ha         1 48Q       0.122000
     94 H48         -9.9180     2.6010    -1.4800 ha         1 48Q       0.115000
     95 H49         -8.5850     1.1910    -3.0040 ha         1 48Q       0.110000
     96 H50         -6.3410     0.4270    -2.3760 ha         1 48Q       0.135000
     97 H51        -10.4140     4.5650    -0.1770 h1         1 48Q       0.038700
     98 H52        -11.1090     3.0940     0.5530 h1         1 48Q       0.038700
     99 H53        -10.7740     4.5170     1.5610 h1         1 48Q       0.038700
@<TRIPOS>BOND
     1     1     2 2   
     2     2     3 1   
     3     2    24 1   
     4     3     4 ar  
     5     3     5 ar  
     6     4    17 ar  
     7     4    48 1   
     8     5     6 ar  
     9     5    49 1   
    10     6     7 1   
    11     6    16 ar  
    12     7     8 1   
    13     7    15 2   
    14     8     9 1   
    15     8    12 1   
    16     9    10 1   
    17     9    50 1   
    18     9    51 1   
    19    10    11 1   
    20    10    52 1   
    21    10    53 1   
    22    11    54 1   
    23    11    55 1   
    24    11    56 1   
    25    12    13 1   
    26    12    57 1   
    27    12    58 1   
    28    13    14 1   
    29    13    59 1   
    30    13    60 1   
    31    14    61 1   
    32    14    62 1   
    33    14    63 1   
    34    16    17 ar  
    35    16    64 1   
    36    17    18 1   
    37    18    19 1   
    38    18    23 1   
    39    19    20 1   
    40    19    65 1   
    41    19    66 1   
    42    20    21 1   
    43    20    67 1   
    44    20    68 1   
    45    21    22 1   
    46    21    69 1   
    47    21    70 1   
    48    22    23 1   
    49    22    71 1   
    50    22    72 1   
    51    23    73 1   
    52    23    74 1   
    53    24    25 1   
    54    24    75 1   
    55    25    26 2   
    56    25    33 1   
    57    26    27 1   
    58    26    76 1   
    59    27    28 ar  
    60    27    32 ar  
    61    28    29 ar  
    62    28    77 1   
    63    29    30 ar  
    64    29    78 1   
    65    30    31 ar  
    66    30    79 1   
    67    31    32 ar  
    68    31    80 1   
    69    32    81 1   
    70    33    34 1   
    71    33    35 1   
    72    33    82 1   
    73    34    83 1   
    74    35    36 1   
    75    35    84 1   
    76    35    85 1   
    77    36    37 1   
    78    36    86 1   
    79    37    38 1   
    80    37    39 1   
    81    37    40 1   
    82    38    87 1   
    83    38    88 1   
    84    38    89 1   
    85    39    90 1   
    86    39    91 1   
    87    39    92 1   
    88    40    41 ar  
    89    40    45 ar  
    90    41    42 ar  
    91    41    93 1   
    92    42    43 ar  
    93    42    46 1   
    94    43    44 ar  
    95    43    94 1   
    96    44    45 ar  
    97    44    95 1   
    98    45    96 1   
    99    46    47 1   
   100    47    97 1   
   101    47    98 1   
   102    47    99 1   
@<TRIPOS>SUBSTRUCTURE
     1 48Q         1 TEMP              0 ****  ****    0 ROOT
