@<TRIPOS>MOLECULE
48R
   43    45     1     0     0
SMALL
bcc


@<TRIPOS>ATOM
      1 O21          3.5190    -1.5380     0.2360 o          1 48R      -0.549100
      2 C19          3.3220    -0.3580     0.0530 c          1 48R       0.701100
      3 N20          4.3460     0.5130    -0.2290 ns         1 48R      -0.656300
      4 S22          5.9750     0.0960    -0.1980 s6         1 48R       1.247600
      5 O23          6.2440    -0.6500     1.0150 o          1 48R      -0.591800
      6 C24          6.1730    -0.9660    -1.6000 c3         1 48R      -0.249300
      7 O25          6.6710     1.3470    -0.4380 o          1 48R      -0.591800
      8 C17          1.9620     0.3000     0.1340 c3         1 48R      -0.150700
      9 C18          1.8620     1.1080     1.4340 c3         1 48R      -0.086100
     10 C16          0.8830    -0.7670     0.0310 c3         1 48R       0.152400
     11 O15         -0.3600    -0.0810    -0.0200 os         1 48R      -0.192300
     12 N14         -1.3880    -0.9520     0.0090 n2         1 48R      -0.399200
     13 C07         -2.5340    -0.3940    -0.0250 cc         1 48R       0.473500
     14 C08         -3.7630    -1.2020     0.0090 ca         1 48R      -0.148400
     15 C09         -4.8620    -0.3360    -0.0260 cp         1 48R      -0.029000
     16 C10         -6.1530    -0.8340    -0.0020 ca         1 48R      -0.107000
     17 C11         -6.3310    -2.2130     0.0590 ca         1 48R      -0.116500
     18 C12         -5.2360    -3.0730     0.0930 ca         1 48R      -0.134500
     19 C13         -3.9380    -2.5730     0.0690 ca         1 48R      -0.079000
     20 C02         -4.3610     1.0400    -0.0840 cp         1 48R      -0.029000
     21 C03         -2.9540     1.0170    -0.0860 ca         1 48R      -0.148400
     22 C01         -5.0510     2.2380    -0.1300 ca         1 48R      -0.107000
     23 C06         -4.3260     3.4240    -0.1790 ca         1 48R      -0.116500
     24 C05         -2.9360     3.4060    -0.1830 ca         1 48R      -0.134500
     25 C04         -2.2360     2.2040    -0.1380 ca         1 48R      -0.079000
     26 H1           4.1470     1.4800    -0.4580 hn         1 48R       0.348500
     27 H2           7.2240    -1.2500    -1.6380 h1         1 48R       0.110033
     28 H3           5.5530    -1.8510    -1.4790 h1         1 48R       0.110033
     29 H4           5.8980    -0.4190    -2.4980 h1         1 48R       0.110033
     30 H5           1.8660     0.9850    -0.7160 hc         1 48R       0.072700
     31 H6           1.9800     0.4610     2.3050 hc         1 48R       0.050033
     32 H7           2.6210     1.8880     1.4830 hc         1 48R       0.050033
     33 H8           0.8910     1.5950     1.5060 hc         1 48R       0.050033
     34 H9           1.0090    -1.3730    -0.8710 h1         1 48R       0.059200
     35 H10          0.9100    -1.4300     0.9000 h1         1 48R       0.059200
     36 H11         -7.0100    -0.1720    -0.0310 ha         1 48R       0.137000
     37 H12         -7.3320    -2.6220     0.0820 ha         1 48R       0.133000
     38 H13         -5.3970    -4.1420     0.1400 ha         1 48R       0.133500
     39 H14         -3.0890    -3.2440     0.0960 ha         1 48R       0.146000
     40 H15         -6.1340     2.2600    -0.1280 ha         1 48R       0.137000
     41 H16         -4.8500     4.3700    -0.2150 ha         1 48R       0.133000
     42 H17         -2.3880     4.3380    -0.2240 ha         1 48R       0.133500
     43 H18         -1.1570     2.2160    -0.1460 ha         1 48R       0.146000
@<TRIPOS>BOND
     1     1     2 2   
     2     2     3 1   
     3     2     8 1   
     4     3     4 1   
     5     3    26 1   
     6     4     5 2   
     7     4     6 1   
     8     4     7 2   
     9     6    27 1   
    10     6    28 1   
    11     6    29 1   
    12     8     9 1   
    13     8    10 1   
    14     8    30 1   
    15     9    31 1   
    16     9    32 1   
    17     9    33 1   
    18    10    11 1   
    19    10    34 1   
    20    10    35 1   
    21    11    12 1   
    22    12    13 2   
    23    13    14 1   
    24    13    21 1   
    25    14    15 ar  
    26    14    19 ar  
    27    15    16 ar  
    28    15    20 1   
    29    16    17 ar  
    30    16    36 1   
    31    17    18 ar  
    32    17    37 1   
    33    18    19 ar  
    34    18    38 1   
    35    19    39 1   
    36    20    21 ar  
    37    20    22 ar  
    38    21    25 ar  
    39    22    23 ar  
    40    22    40 1   
    41    23    24 ar  
    42    23    41 1   
    43    24    25 ar  
    44    24    42 1   
    45    25    43 1   
@<TRIPOS>SUBSTRUCTURE
     1 48R         1 TEMP              0 ****  ****    0 ROOT
