@<TRIPOS>MOLECULE
48R
   43    45     1     0     0
SMALL
No Charge or Current Charge


@<TRIPOS>ATOM
      1 O21          3.8780    -0.8990     1.2540 o          1 48R      -0.549100
      2 C19          3.5150    -0.0490     0.4580 c          1 48R       0.634100
      3 N20          4.2960     0.3790    -0.5690 ns         1 48R      -0.589300
      4 S22          5.8850    -0.0190    -0.8850 s6         1 48R       1.216800
      5 O23          6.6140    -0.0920     0.3850 o          1 48R      -0.521000
      6 C24          5.7630    -1.6670    -1.5570 c3         1 48R      -0.360100
      7 O25          6.3480     0.8760    -1.9500 o          1 48R      -0.521000
      8 C17          2.1260     0.6020     0.5300 c3         1 48R      -0.150700
      9 C18          1.9590     1.4150     1.8420 c3         1 48R      -0.086100
     10 C16          1.0410    -0.4840     0.3490 c3         1 48R       0.175600
     11 O15         -0.2340     0.1740     0.2540 os         1 48R      -0.314000
     12 N14         -1.2630    -0.7730     0.0880 n2         1 48R      -0.300700
     13 C07         -2.4870    -0.3220     0.0020 cc         1 48R       0.473500
     14 C08         -3.6710    -1.1650    -0.1730 ca         1 48R      -0.148400
     15 C09         -4.8270    -0.3810    -0.2270 cp         1 48R      -0.029000
     16 C10         -6.0970    -0.9650    -0.3900 ca         1 48R      -0.089000
     17 C11         -6.1800    -2.3690    -0.4990 ca         1 48R      -0.098500
     18 C12         -5.0090    -3.1610    -0.4440 ca         1 48R      -0.116500
     19 C13         -3.7410    -2.5640    -0.2800 ca         1 48R      -0.061000
     20 C02         -4.4160     1.0270    -0.0860 cp         1 48R      -0.029000
     21 C03         -3.0180     1.0570     0.0500 ca         1 48R      -0.148400
     22 C01         -5.1840     2.2060    -0.0740 ca         1 48R      -0.089000
     23 C06         -4.5210     3.4380     0.0790 ca         1 48R      -0.098500
     24 C05         -3.1150     3.4780     0.2160 ca         1 48R      -0.116500
     25 C04         -2.3520     2.2910     0.2030 ca         1 48R      -0.061000
     26 H1           3.9560     1.0850    -1.2000 hn         1 48R       0.348500
     27 H2           6.7770    -1.9920    -1.8110 h1         1 48R       0.110033
     28 H3           5.3230    -2.3060    -0.7850 h1         1 48R       0.110033
     29 H4           5.1270    -1.6150    -2.4460 h1         1 48R       0.110033
     30 H5           2.0330     1.3050    -0.3060 hc         1 48R       0.072700
     31 H6           2.0060     0.7580     2.7200 hc         1 48R       0.050033
     32 H7           2.7530     2.1660     1.9340 hc         1 48R       0.050033
     33 H8           0.9960     1.9400     1.8600 hc         1 48R       0.050033
     34 H9           1.2460    -1.0580    -0.5650 h1         1 48R       0.059200
     35 H10          1.0620    -1.1760     1.2020 h1         1 48R       0.059200
     36 H11         -6.9920    -0.3490    -0.4320 ha         1 48R       0.119000
     37 H12         -7.1500    -2.8440    -0.6260 ha         1 48R       0.115000
     38 H13         -5.0870    -4.2430    -0.5290 ha         1 48R       0.115500
     39 H14         -2.8410    -3.1750    -0.2370 ha         1 48R       0.128000
     40 H15         -6.2650     2.1660    -0.1800 ha         1 48R       0.119000
     41 H16         -5.0930     4.3630     0.0910 ha         1 48R       0.115000
     42 H17         -2.6140     4.4360     0.3330 ha         1 48R       0.115500
     43 H18         -1.2730     2.3520     0.3110 ha         1 48R       0.128000
@<TRIPOS>BOND
     1     1     2 2   
     2     2     3 1   
     3     2     8 1   
     4     3     4 1   
     5     3    26 1   
     6     4     5 2   
     7     4     6 1   
     8     4     7 2   
     9     6    27 1   
    10     6    28 1   
    11     6    29 1   
    12     8     9 1   
    13     8    10 1   
    14     8    30 1   
    15     9    31 1   
    16     9    32 1   
    17     9    33 1   
    18    10    11 1   
    19    10    34 1   
    20    10    35 1   
    21    11    12 1   
    22    12    13 2   
    23    13    14 1   
    24    13    21 1   
    25    14    15 ar  
    26    14    19 ar  
    27    15    16 ar  
    28    15    20 1   
    29    16    17 ar  
    30    16    36 1   
    31    17    18 ar  
    32    17    37 1   
    33    18    19 ar  
    34    18    38 1   
    35    19    39 1   
    36    20    21 ar  
    37    20    22 ar  
    38    21    25 ar  
    39    22    23 ar  
    40    22    40 1   
    41    23    24 ar  
    42    23    41 1   
    43    24    25 ar  
    44    24    42 1   
    45    25    43 1   
@<TRIPOS>SUBSTRUCTURE
     1 48R         1 TEMP              0 ****  ****    0 ROOT
