@<TRIPOS>MOLECULE
48S
   35    35     1     0     0
SMALL
bcc


@<TRIPOS>ATOM
      1 C11          5.0570    -0.6140     0.0270 c3         1 48S       0.092300
      2 C13         -1.0630    -0.7210     0.2800 ca         1 48S       0.015700
      3 C14         -1.9290    -0.7290     1.3680 ca         1 48S      -0.095500
      4 C15         -1.5090    -1.3080    -0.8990 ca         1 48S      -0.095500
      5 C16         -2.7740    -1.8690    -0.9900 ca         1 48S      -0.136500
      6 O5           0.3840     3.3280    -1.6550 o          1 48S      -0.932167
      7 O7          -0.2530     2.9110     0.7980 o          1 48S      -0.932167
      8 O6          -1.7410     2.0080    -1.0970 o          1 48S      -0.932167
      9 C1           0.6980     0.8520    -0.6650 c3         1 48S      -0.223600
     10 C2           0.3340    -0.1670     0.4120 c3         1 48S       0.030600
     11 C3           1.3210    -1.3500     0.4530 c3         1 48S      -0.143400
     12 C8           2.7200    -0.8870     0.7850 c          1 48S       0.700100
     13 N9           3.7040    -1.0920    -0.1210 n          1 48S      -0.366300
     14 O10          3.3810    -1.4580    -1.4020 oh         1 48S      -0.370100
     15 O12          2.9690    -0.3640     1.8650 o          1 48S      -0.604100
     16 C18         -3.6460    -1.8640     0.0960 ca         1 48S      -0.122300
     17 C19         -5.0240    -2.4550    -0.0010 c3         1 48S      -0.021800
     18 C17         -3.1970    -1.2850     1.2800 ca         1 48S      -0.136500
     19 H1           5.7550    -1.3740    -0.3240 h1         1 48S       0.034700
     20 H2           5.2200     0.3040    -0.5430 h1         1 48S       0.034700
     21 H3           5.2610    -0.4180     1.0740 h1         1 48S       0.034700
     22 H4          -1.6060    -0.2900     2.3060 ha         1 48S       0.128500
     23 H5          -0.8620    -1.3290    -1.7680 ha         1 48S       0.128500
     24 H6          -3.0920    -2.3160    -1.9260 ha         1 48S       0.093000
     25 H9           0.6690     0.3800    -1.6540 hc         1 48S       0.013700
     26 H10          1.7410     1.1560    -0.5170 hc         1 48S       0.013700
     27 H11          0.3890     0.3480     1.3750 hc         1 48S       0.086700
     28 H12          1.0310    -2.0390     1.2520 hc         1 48S       0.032700
     29 H13          1.2700    -1.9070    -0.4810 hc         1 48S       0.032700
     30 H14          3.5730    -2.4030    -1.4700 ho         1 48S       0.370000
     31 H15         -5.1820    -3.2310     0.7500 hc         1 48S       0.013700
     32 H16         -5.7940    -1.6980     0.1580 hc         1 48S       0.013700
     33 H17         -5.1990    -2.9010    -0.9800 hc         1 48S       0.013700
     34 H18         -3.8490    -1.2690     2.1480 ha         1 48S       0.093000
     35 P4          -0.3310     2.4060    -0.6510 p5         1 48S       1.134700
@<TRIPOS>BOND
     1     1    13 1   
     2     1    19 1   
     3     1    20 1   
     4     1    21 1   
     5     2     3 ar  
     6     2     4 ar  
     7     2    10 1   
     8     3    18 ar  
     9     3    22 1   
    10     4     5 ar  
    11     4    23 1   
    12     5    16 ar  
    13     5    24 1   
    14     6    35 1   
    15     7    35 1   
    16     8    35 1   
    17     9    10 1   
    18     9    25 1   
    19     9    26 1   
    20     9    35 1   
    21    10    11 1   
    22    10    27 1   
    23    11    12 1   
    24    11    28 1   
    25    11    29 1   
    26    12    13 1   
    27    12    15 2   
    28    13    14 1   
    29    14    30 1   
    30    16    17 1   
    31    16    18 ar  
    32    17    31 1   
    33    17    32 1   
    34    17    33 1   
    35    18    34 1   
@<TRIPOS>SUBSTRUCTURE
     1 48S         1 TEMP              0 ****  ****    0 ROOT
