@<TRIPOS>MOLECULE
48S
   35    35     1     0     0
SMALL
No Charge or Current Charge


@<TRIPOS>ATOM
      1 C11          5.1850    -0.5260     0.1390 c3         1 48S       0.092300
      2 C13         -1.0970    -0.7700     0.2720 ca         1 48S       0.015700
      3 C14         -2.0010    -0.5790     1.3370 ca         1 48S      -0.077500
      4 C15         -1.5200    -1.5050    -0.8550 ca         1 48S      -0.077500
      5 C16         -2.8220    -2.0330    -0.9180 ca         1 48S      -0.118500
      6 O5           0.4430     3.3610    -1.5570 o          1 48S      -0.932167
      7 O7          -0.4320     2.8300     0.6590 o          1 48S      -0.932167
      8 O6          -1.6430     2.1140    -1.3500 o          1 48S      -0.932167
      9 C1           0.6700     0.7840    -0.7650 c3         1 48S      -0.381400
     10 C2           0.3350    -0.2270     0.3670 c3         1 48S       0.030600
     11 C3           1.3460    -1.4050     0.4240 c3         1 48S      -0.143400
     12 C8           2.7680    -0.9450     0.8130 c          1 48S       0.633100
     13 N9           3.8070    -0.9620    -0.1630 n          1 48S      -0.299300
     14 O10          3.5660    -1.3690    -1.5260 oh         1 48S      -0.409100
     15 O12          3.0090    -0.6020     1.9660 o          1 48S      -0.604100
     16 C18         -3.7210    -1.8350     0.1460 ca         1 48S      -0.122300
     17 C19         -5.1280    -2.4100     0.0800 c3         1 48S      -0.021800
     18 C17         -3.3020    -1.1070     1.2740 ca         1 48S      -0.118500
     19 H1           5.8110    -0.5900    -0.7600 h1         1 48S       0.034700
     20 H2           5.1740     0.5140     0.4910 h1         1 48S       0.034700
     21 H3           5.6120    -1.1670     0.9200 h1         1 48S       0.034700
     22 H4          -1.6940    -0.0230     2.2200 ha         1 48S       0.110500
     23 H5          -0.8380    -1.6730    -1.6840 ha         1 48S       0.110500
     24 H6          -3.1290    -2.5980    -1.7940 ha         1 48S       0.075000
     25 H9           0.5490     0.3140    -1.7470 hc         1 48S       0.013700
     26 H10          1.7190     1.0860    -0.6860 hc         1 48S       0.013700
     27 H11          0.4350     0.3140     1.3180 hc         1 48S       0.086700
     28 H12          0.9990    -2.1030     1.1960 hc         1 48S       0.032700
     29 H13          1.3410    -1.9200    -0.5420 hc         1 48S       0.032700
     30 H14          3.7500    -2.3350    -1.5440 ho         1 48S       0.409000
     31 H15         -5.1550    -3.4220     0.5030 hc         1 48S       0.013700
     32 H16         -5.8390    -1.7920     0.6420 hc         1 48S       0.013700
     33 H17         -5.4880    -2.4690    -0.9540 hc         1 48S       0.013700
     34 H18         -3.9850    -0.9500     2.1060 ha         1 48S       0.075000
     35 P4          -0.3010     2.3550    -0.7470 p5         1 48S       1.292500
@<TRIPOS>BOND
     1     1    13 1   
     2     1    19 1   
     3     1    20 1   
     4     1    21 1   
     5     2     3 ar  
     6     2     4 ar  
     7     2    10 1   
     8     3    18 ar  
     9     3    22 1   
    10     4     5 ar  
    11     4    23 1   
    12     5    16 ar  
    13     5    24 1   
    14     6    35 1   
    15     7    35 1   
    16     8    35 1   
    17     9    10 1   
    18     9    25 1   
    19     9    26 1   
    20     9    35 1   
    21    10    11 1   
    22    10    27 1   
    23    11    12 1   
    24    11    28 1   
    25    11    29 1   
    26    12    13 1   
    27    12    15 2   
    28    13    14 1   
    29    14    30 1   
    30    16    17 1   
    31    16    18 ar  
    32    17    31 1   
    33    17    32 1   
    34    17    33 1   
    35    18    34 1   
@<TRIPOS>SUBSTRUCTURE
     1 48S         1 TEMP              0 ****  ****    0 ROOT
