@<TRIPOS>MOLECULE
48T
   60    61     1     0     0
SMALL
No Charge or Current Charge


@<TRIPOS>ATOM
      1 N1          -6.1750     4.1070     0.7950 n8         1 48T      -1.000200
      2 CA1         -4.7830     3.7400     1.2490 c3         1 48T       0.011500
      3 C1          -3.7360     4.9290     1.3150 c          1 48T       0.694000
      4 O11         -3.1700     5.1450     2.3780 o          1 48T      -0.739500
      5 CB1         -4.2140     2.5690     0.4020 c3         1 48T      -0.045400
      6 CG1         -5.0130     1.2450     0.5160 c3         1 48T      -0.146400
      7 CD1         -4.3310     0.1170    -0.2640 c          1 48T       0.603100
      8 OE1         -4.3680     0.0460    -1.4840 o          1 48T      -0.606100
      9 O12         -3.6180     5.6570     0.3370 o          1 48T      -0.739500
     10 N2          -3.7160    -0.8380     0.5160 ns         1 48T      -0.501900
     11 CA2         -2.9480    -1.9980     0.0010 c3         1 48T       0.046700
     12 C2          -3.3540    -3.2990     0.7530 c          1 48T       0.582100
     13 O2          -3.9750    -3.3000     1.8110 o          1 48T      -0.646100
     14 CB2         -1.4230    -1.7560     0.1300 c3         1 48T       0.035600
     15 SG2         -0.8620    -0.2840    -0.8460 ss         1 48T      -0.348000
     16 CZ4          8.4380     1.7080    -0.9370 ca         1 48T      -0.098000
     17 CE4          9.8150     1.8100    -0.6720 ca         1 48T      -0.114500
     18 CD4         10.3140     1.4690     0.5950 ca         1 48T      -0.113000
     19 CG4          9.4360     1.0250     1.5960 ca         1 48T      -0.114500
     20 CB4          8.0590     0.9220     1.3300 ca         1 48T      -0.098000
     21 CH4          7.5300     1.2610     0.0580 cp         1 48T      -0.029000
     22 CH5          6.0630     1.1520    -0.2250 cp         1 48T      -0.022000
     23 CB5          5.4100     2.0700    -1.0820 ca         1 48T      -0.117000
     24 CG5          4.0340     1.9690    -1.3480 ca         1 48T      -0.064000
     25 CD5          3.2580     0.9420    -0.7660 ca         1 48T      -0.157600
     26 CE5          3.9010     0.0190     0.0910 ca         1 48T      -0.064000
     27 CZ5          5.2780     0.1260     0.3540 ca         1 48T      -0.117000
     28 O5           1.2430     1.6640    -1.8200 o          1 48T      -0.486100
     29 N3          -2.9690    -4.4740     0.1410 ns         1 48T      -0.460900
     30 CA3         -3.2300    -5.8330     0.6730 c3         1 48T      -0.054000
     31 C3          -2.8110    -6.9510    -0.3240 c          1 48T       0.713000
     32 C13          0.9490    -0.2800    -0.4110 c3         1 48T      -0.073400
     33 O31         -1.9630    -6.6960    -1.1690 o          1 48T      -0.734500
     34 C14          1.7730     0.8520    -1.0690 c          1 48T       0.588700
     35 O32         -3.3790    -8.0310    -0.2460 o          1 48T      -0.734500
     36 H11N        -6.5450     4.8390     1.4130 hn         1 48T       0.378500
     37 H12N        -6.1010     4.5860    -0.1120 hn         1 48T       0.378500
     38 HA1         -4.8840     3.3680     2.2790 h1         1 48T       0.031700
     39 HB11        -4.1540     2.8730    -0.6510 hc         1 48T       0.054700
     40 HB12        -3.1830     2.3780     0.7270 hc         1 48T       0.054700
     41 HG11        -5.0860     0.9760     1.5770 hc         1 48T       0.053200
     42 HG12        -6.0160     1.3990     0.1020 hc         1 48T       0.053200
     43 H2          -3.7910    -0.7220     1.5200 hn         1 48T       0.315500
     44 HA2         -3.1910    -2.1540    -1.0570 h1         1 48T       0.085700
     45 HB21        -1.1650    -1.6020     1.1860 h1         1 48T       0.068200
     46 HB22        -0.8760    -2.6380    -0.2280 h1         1 48T       0.068200
     47 H3          -2.4620    -4.4010    -0.7350 hn         1 48T       0.341500
     48 H131         1.0550    -0.1810     0.6760 h1         1 48T       0.075700
     49 H132         1.3930    -1.2360    -0.7170 h1         1 48T       0.075700
     50 HD4         11.3800     1.5490     0.8010 ha         1 48T       0.106000
     51 HE4         10.4940     2.1520    -1.4500 ha         1 48T       0.108500
     52 HZ4          8.0740     1.9640    -1.9290 ha         1 48T       0.117000
     53 HZ5          5.7430    -0.6080     1.0060 ha         1 48T       0.113500
     54 HB5          5.9720     2.8820    -1.5360 ha         1 48T       0.113500
     55 HE5          3.3510    -0.7930     0.5620 ha         1 48T       0.129500
     56 HG5          3.5740     2.7010    -2.0100 ha         1 48T       0.129500
     57 HA31        -2.6650    -5.9690     1.6040 h1         1 48T       0.033700
     58 HA32        -4.3010    -5.9350     0.8890 h1         1 48T       0.033700
     59 HB4          7.3950     0.5890     2.1230 ha         1 48T       0.117000
     60 HG4          9.8200     0.7640     2.5790 ha         1 48T       0.108500
@<TRIPOS>BOND
     1     1     2 1   
     2     1    36 1   
     3     1    37 1   
     4     2     3 1   
     5     2     5 1   
     6     2    38 1   
     7     3     4 1   
     8     3     9 1   
     9     5     6 1   
    10     5    39 1   
    11     5    40 1   
    12     6     7 1   
    13     6    41 1   
    14     6    42 1   
    15     7     8 2   
    16     7    10 1   
    17    10    11 1   
    18    10    43 1   
    19    11    12 1   
    20    11    14 1   
    21    11    44 1   
    22    12    13 2   
    23    12    29 1   
    24    14    15 1   
    25    14    45 1   
    26    14    46 1   
    27    15    32 1   
    28    16    17 ar  
    29    16    21 ar  
    30    16    52 1   
    31    17    18 ar  
    32    17    51 1   
    33    18    19 ar  
    34    18    50 1   
    35    19    20 ar  
    36    19    60 1   
    37    20    21 ar  
    38    20    59 1   
    39    21    22 1   
    40    22    23 ar  
    41    22    27 ar  
    42    23    24 ar  
    43    23    54 1   
    44    24    25 ar  
    45    24    56 1   
    46    25    26 ar  
    47    25    34 1   
    48    26    27 ar  
    49    26    55 1   
    50    27    53 1   
    51    28    34 2   
    52    29    30 1   
    53    29    47 1   
    54    30    31 1   
    55    30    57 1   
    56    30    58 1   
    57    31    33 1   
    58    31    35 1   
    59    32    34 1   
    60    32    48 1   
    61    32    49 1   
@<TRIPOS>SUBSTRUCTURE
     1 48T         1 TEMP              0 ****  ****    0 ROOT
