@<TRIPOS>MOLECULE
48T
   60    61     1     0     0
SMALL
abcg2


@<TRIPOS>ATOM
      1 N1          -6.8980     3.2280     1.9600 n8         1 48T      -1.000200
      2 CA1         -6.0900     3.5470     0.7940 c3         1 48T       0.011500
      3 C1          -6.7680     4.4540    -0.2670 c          1 48T       0.694000
      4 O11         -6.0230     4.8670    -1.1810 o          1 48T      -0.739500
      5 CB1         -5.6070     2.2600     0.1240 c3         1 48T      -0.045400
      6 CG1         -4.7730     1.3840     1.0530 c3         1 48T      -0.146400
      7 CD1         -4.2920     0.1300     0.3670 c          1 48T       0.603100
      8 OE1         -5.0320    -0.5940    -0.2860 o          1 48T      -0.606100
      9 O12         -7.9840     4.6900    -0.1370 o          1 48T      -0.739500
     10 N2          -2.9830    -0.1480     0.5060 ns         1 48T      -0.501900
     11 CA2         -2.4030    -1.3350    -0.0580 c3         1 48T       0.046700
     12 C2          -2.9820    -2.5980     0.5950 c          1 48T       0.582100
     13 O2          -3.3200    -2.6130     1.7700 o          1 48T      -0.646100
     14 CB2         -0.8930    -1.3310     0.1560 c3         1 48T       0.035600
     15 SG2         -0.1660     0.1290    -0.6470 ss         1 48T      -0.348000
     16 CZ4          8.9930     1.3200    -0.7280 ca         1 48T      -0.098000
     17 CE4         10.3610     1.3040    -0.5020 ca         1 48T      -0.114500
     18 CD4         10.8670     0.8050     0.6910 ca         1 48T      -0.113000
     19 CG4          9.9940     0.3210     1.6560 ca         1 48T      -0.114500
     20 CB4          8.6260     0.3340     1.4290 ca         1 48T      -0.098000
     21 CH4          8.1050     0.8340     0.2340 cp         1 48T      -0.029000
     22 CH5          6.6500     0.8500    -0.0080 cp         1 48T      -0.022000
     23 CB5          6.0530     1.8910    -0.7270 ca         1 48T      -0.117000
     24 CG5          4.6910     1.9060    -0.9540 ca         1 48T      -0.064000
     25 CD5          3.8770     0.8810    -0.4710 ca         1 48T      -0.157600
     26 CE5          4.4660    -0.1590     0.2470 ca         1 48T      -0.064000
     27 CZ5          5.8320    -0.1730     0.4730 ca         1 48T      -0.117000
     28 O5           1.9210     1.8470    -1.3610 o          1 48T      -0.486100
     29 N3          -3.0200    -3.6570    -0.2100 ns         1 48T      -0.460900
     30 CA3         -3.4380    -4.9740     0.1980 c3         1 48T      -0.054000
     31 C3          -3.3090    -5.9750    -0.9680 c          1 48T       0.713000
     32 C13          1.5570    -0.1820    -0.2030 c3         1 48T      -0.073400
     33 O31         -2.8980    -5.5290    -2.0560 o          1 48T      -0.734500
     34 C14          2.4190     0.9350    -0.7360 c          1 48T       0.588700
     35 O32         -3.6340    -7.1440    -0.7010 o          1 48T      -0.734500
     36 H11N        -7.1450     4.0910     2.4290 hn         1 48T       0.378500
     37 H12N        -7.7850     2.8550     1.6390 hn         1 48T       0.378500
     38 HA1         -5.2020     4.0840     1.1510 h1         1 48T       0.031700
     39 HB11        -6.4710     1.6940    -0.2370 hc         1 48T       0.054700
     40 HB12        -5.0190     2.5260    -0.7560 hc         1 48T       0.054700
     41 HG11        -3.9280     1.9570     1.4430 hc         1 48T       0.053200
     42 HG12        -5.3720     1.0910     1.9180 hc         1 48T       0.053200
     43 H2          -2.4150     0.4340     1.1010 hn         1 48T       0.315500
     44 HA2         -2.6040    -1.3650    -1.1340 h1         1 48T       0.085700
     45 HB21        -0.6600    -1.3200     1.2240 h1         1 48T       0.068200
     46 HB22        -0.4640    -2.2370    -0.2740 h1         1 48T       0.068200
     47 H3          -2.7510    -3.5810    -1.1810 hn         1 48T       0.341500
     48 H131         1.6610    -0.2470     0.8840 h1         1 48T       0.075700
     49 H132         1.8920    -1.1380    -0.6140 h1         1 48T       0.075700
     50 HD4         11.9350     0.7930     0.8680 ha         1 48T       0.106000
     51 HE4         11.0330     1.6770    -1.2650 ha         1 48T       0.108500
     52 HZ4          8.6180     1.6940    -1.6720 ha         1 48T       0.117000
     53 HZ5          6.2660    -1.0040     1.0130 ha         1 48T       0.113500
     54 HB5          6.6550     2.7110    -1.0960 ha         1 48T       0.113500
     55 HE5          3.8740    -0.9760     0.6370 ha         1 48T       0.129500
     56 HG5          4.2550     2.7290    -1.5050 ha         1 48T       0.129500
     57 HA31        -2.8380    -5.3280     1.0410 h1         1 48T       0.033700
     58 HA32        -4.4770    -4.9620     0.5410 h1         1 48T       0.033700
     59 HB4          7.9580    -0.0310     2.2000 ha         1 48T       0.117000
     60 HG4         10.3780    -0.0660     2.5910 ha         1 48T       0.108500
@<TRIPOS>BOND
     1     1     2 1   
     2     1    36 1   
     3     1    37 1   
     4     2     3 1   
     5     2     5 1   
     6     2    38 1   
     7     3     4 1   
     8     3     9 1   
     9     5     6 1   
    10     5    39 1   
    11     5    40 1   
    12     6     7 1   
    13     6    41 1   
    14     6    42 1   
    15     7     8 2   
    16     7    10 1   
    17    10    11 1   
    18    10    43 1   
    19    11    12 1   
    20    11    14 1   
    21    11    44 1   
    22    12    13 2   
    23    12    29 1   
    24    14    15 1   
    25    14    45 1   
    26    14    46 1   
    27    15    32 1   
    28    16    17 ar  
    29    16    21 ar  
    30    16    52 1   
    31    17    18 ar  
    32    17    51 1   
    33    18    19 ar  
    34    18    50 1   
    35    19    20 ar  
    36    19    60 1   
    37    20    21 ar  
    38    20    59 1   
    39    21    22 1   
    40    22    23 ar  
    41    22    27 ar  
    42    23    24 ar  
    43    23    54 1   
    44    24    25 ar  
    45    24    56 1   
    46    25    26 ar  
    47    25    34 1   
    48    26    27 ar  
    49    26    55 1   
    50    27    53 1   
    51    28    34 2   
    52    29    30 1   
    53    29    47 1   
    54    30    31 1   
    55    30    57 1   
    56    30    58 1   
    57    31    33 1   
    58    31    35 1   
    59    32    34 1   
    60    32    48 1   
    61    32    49 1   
@<TRIPOS>SUBSTRUCTURE
     1 48T         1 TEMP              0 ****  ****    0 ROOT
