@<TRIPOS>MOLECULE
48U
   49    51     1     0     0
SMALL
No Charge or Current Charge


@<TRIPOS>ATOM
      1 C8           6.5440     3.2050    -0.1720 c3         1 48U       0.084800
      2 C5          -3.4590    -0.1270    -0.8690 ce         1 48U       0.045800
      3 C6          -2.9540    -0.4420     0.3560 cf         1 48U      -0.466100
      4 N1          -2.4070    -2.9310     0.6350 n7         1 48U      -0.896300
      5 C2          -2.9660     2.4870    -3.4680 cc         1 48U      -0.128000
      6 N3           5.4630     2.2650     0.1980 n          1 48U      -0.402800
      7 C4          -3.0680     1.0140    -1.6900 cc         1 48U      -0.225800
      8 C7           4.8970     2.4420     1.5570 c3         1 48U       0.084800
      9 C28          5.3620     1.0230    -0.4750 c          1 48U       0.609700
     10 O4           6.2280     0.6750    -1.2700 o          1 48U      -0.589100
     11 C27          4.1220     0.1700    -0.2760 ca         1 48U      -0.110600
     12 C26          2.8550     0.7310     0.0070 ca         1 48U      -0.122000
     13 C22          1.7280    -0.0900     0.1690 ca         1 48U       0.163000
     14 F1           0.5360     0.5000     0.4140 f          1 48U      -0.174000
     15 C15          1.8110    -1.4900    -0.0170 ca         1 48U      -0.073000
     16 C21          3.0840    -2.0490    -0.2550 ca         1 48U      -0.081000
     17 C24          4.2150    -1.2300    -0.4140 ca         1 48U      -0.076000
     18 N2           0.7100    -2.3640     0.3150 n          1 48U      -0.244400
     19 C50         -0.0550    -2.2660     1.4930 c          1 48U       0.529000
     20 O3           0.1600    -1.5000     2.4250 o          1 48U      -0.516000
     21 C12         -1.1580    -3.3580     1.3590 c5         1 48U       0.163500
     22 C13         -0.4800    -4.4220     0.4580 c5         1 48U      -0.102400
     23 C14          0.3970    -3.5620    -0.5010 c5         1 48U       0.103000
     24 O2          -3.0080    -1.6160     2.6910 o          1 48U      -0.533500
     25 O1          -4.7900    -2.2480     0.9500 o          1 48U      -0.533500
     26 S2          -1.8560     2.1970    -1.1570 ss         1 48U       0.301000
     27 C1          -2.0380     3.0920    -2.6690 cd         1 48U      -0.033000
     28 Cl1         -1.1450     4.5310    -3.0450 cl         1 48U      -0.141000
     29 C3          -3.5290     1.3580    -2.9420 cd         1 48U      -0.090000
     30 H1           6.3690     4.1840     0.2920 h1         1 48U       0.044700
     31 H2           7.5110     2.8130     0.1700 h1         1 48U       0.044700
     32 H3           6.5720     3.3340    -1.2610 h1         1 48U       0.044700
     33 H4          -4.2280    -0.7690    -1.3110 ha         1 48U       0.201000
     34 H5          -2.1950     0.1490     0.8710 h4         1 48U       0.242000
     35 H6          -2.1580    -2.4410    -0.2230 hn         1 48U       0.487000
     36 H8           4.0100     3.0870     1.5090 h1         1 48U       0.044700
     37 H9           4.6230     1.4740     1.9940 h1         1 48U       0.044700
     38 H10          5.6390     2.9150     2.2140 h1         1 48U       0.044700
     39 H11          2.7280     1.8070     0.0800 ha         1 48U       0.142000
     40 H12          3.2100    -3.1270    -0.3150 ha         1 48U       0.132000
     41 H13          5.1790    -1.6920    -0.6220 ha         1 48U       0.139000
     42 H14         -1.3790    -3.7610     2.3580 h1         1 48U       0.122700
     43 H15          0.1580    -5.0750     1.0650 hc         1 48U       0.075200
     44 H16         -1.1870    -5.0710    -0.0710 hc         1 48U       0.075200
     45 H17         -0.1630    -3.2690    -1.3980 h1         1 48U       0.055700
     46 H18          1.2920    -4.1070    -0.8250 h1         1 48U       0.055700
     47 H19         -4.2790     0.7790    -3.4740 ha         1 48U       0.142000
     48 S1          -3.4400    -1.8160     1.3080 sy         1 48U       1.168200
     49 H7          -3.2340     2.8730    -4.4470 ha         1 48U       0.150000
@<TRIPOS>BOND
     1     1     6 1   
     2     1    30 1   
     3     1    31 1   
     4     1    32 1   
     5     2     3 2   
     6     2     7 1   
     7     2    33 1   
     8     3    34 1   
     9     3    48 1   
    10     4    21 1   
    11     4    35 1   
    12     4    48 1   
    13     5    27 2   
    14     5    29 1   
    15     5    49 1   
    16     6     8 1   
    17     6     9 1   
    18     7    26 1   
    19     7    29 2   
    20     8    36 1   
    21     8    37 1   
    22     8    38 1   
    23     9    10 2   
    24     9    11 1   
    25    11    12 ar  
    26    11    17 ar  
    27    12    13 ar  
    28    12    39 1   
    29    13    14 1   
    30    13    15 ar  
    31    15    16 ar  
    32    15    18 1   
    33    16    17 ar  
    34    16    40 1   
    35    17    41 1   
    36    18    19 1   
    37    18    23 1   
    38    19    20 2   
    39    19    21 1   
    40    21    22 1   
    41    21    42 1   
    42    22    23 1   
    43    22    43 1   
    44    22    44 1   
    45    23    45 1   
    46    23    46 1   
    47    24    48 2   
    48    25    48 2   
    49    26    27 1   
    50    27    28 1   
    51    29    47 1   
@<TRIPOS>SUBSTRUCTURE
     1 48U         1 TEMP              0 ****  ****    0 ROOT
