@<TRIPOS>MOLECULE
48U
   49    51     1     0     0
SMALL
bcc


@<TRIPOS>ATOM
      1 C8           5.6890     3.1930    -0.9350 c3         1 48U       0.084800
      2 C5          -2.8560     0.2990    -0.7830 ce         1 48U       0.095800
      3 C6          -2.6190    -0.4270     0.3120 cf         1 48U      -0.416100
      4 N1          -2.2710    -3.1470     0.2590 n7         1 48U      -0.841100
      5 C2          -1.6820     3.4960    -2.2650 cc         1 48U      -0.146000
      6 N3           4.6990     2.2490    -0.4540 n          1 48U      -0.469800
      7 C4          -2.2120     1.5450    -1.1060 cc         1 48U      -0.080900
      8 C7           3.6720     2.8150     0.3990 c3         1 48U       0.084800
      9 C28          4.9280     0.9340    -0.6140 c          1 48U       0.676700
     10 O4           5.9700     0.4900    -1.0810 o          1 48U      -0.589100
     11 C27          3.8330    -0.0190    -0.2420 ca         1 48U      -0.110600
     12 C26          2.5520     0.1370    -0.7600 ca         1 48U      -0.140000
     13 C22          1.6000    -0.8170    -0.4710 ca         1 48U       0.127900
     14 F1           0.3730    -0.6950    -0.9840 f          1 48U      -0.138900
     15 C15          1.8710    -1.9110     0.3400 ca         1 48U       0.019600
     16 C21          3.1560    -2.0580     0.8430 ca         1 48U      -0.099000
     17 C24          4.1390    -1.1290     0.5380 ca         1 48U      -0.094000
     18 N2           0.8470    -2.8300     0.6270 n          1 48U      -0.404000
     19 C50         -0.1980    -2.5070     1.4220 c          1 48U       0.671500
     20 O3          -0.2790    -1.5140     2.1160 o          1 48U      -0.591500
     21 C12         -1.2700    -3.5800     1.2300 c5         1 48U       0.163500
     22 C13         -0.4690    -4.7490     0.6680 c5         1 48U      -0.102400
     23 C14          0.6830    -4.0870    -0.0910 c5         1 48U       0.103000
     24 O2          -3.7170    -2.0940     1.9800 o          1 48U      -0.604300
     25 O1          -4.4260    -2.1410    -0.4390 o          1 48U      -0.604300
     26 S2          -0.9550     2.2380    -0.1390 ss         1 48U       0.011200
     27 C1          -0.8190     3.5680    -1.2150 cd         1 48U       0.020300
     28 CL1          0.3190     4.8000    -0.9110 cl         1 48U      -0.049400
     29 C3          -2.4790     2.3310    -2.1960 cd         1 48U      -0.108000
     30 H1           5.2020     4.1490    -1.1160 h1         1 48U       0.044700
     31 H2           6.4870     3.3470    -0.2050 h1         1 48U       0.044700
     32 H3           6.1320     2.8520    -1.8670 h1         1 48U       0.044700
     33 H4          -3.5760    -0.0430    -1.5190 ha         1 48U       0.151000
     34 H5          -1.9170    -0.1490     1.0870 h4         1 48U       0.192000
     35 H6          -1.9960    -3.1860    -0.7170 hn         1 48U       0.431800
     36 H8           2.9610     3.4060    -0.1800 h1         1 48U       0.044700
     37 H9           3.1270     2.0480     0.9390 h1         1 48U       0.044700
     38 H10          4.1360     3.4710     1.1370 h1         1 48U       0.044700
     39 H11          2.2950     0.9760    -1.3940 ha         1 48U       0.160000
     40 H12          3.3810    -2.9070     1.4750 ha         1 48U       0.150000
     41 H13          5.1380    -1.2610     0.9290 ha         1 48U       0.157000
     42 H14         -1.7660    -3.8200     2.1680 h1         1 48U       0.122700
     43 H15         -0.0750    -5.3320     1.4990 hc         1 48U       0.075200
     44 H16         -1.0620    -5.4110     0.0400 hc         1 48U       0.075200
     45 H17          0.4480    -3.9060    -1.1430 h1         1 48U       0.055700
     46 H18          1.5960    -4.6780    -0.0500 h1         1 48U       0.055700
     47 H19         -3.2290     2.0760    -2.9320 ha         1 48U       0.160000
     48 S1          -3.3910    -1.9780     0.5690 sy         1 48U       1.309800
     49 H7          -1.7440     4.2380    -3.0470 ha         1 48U       0.168000
@<TRIPOS>BOND
     1     1     6 1   
     2     1    30 1   
     3     1    31 1   
     4     1    32 1   
     5     2     3 2   
     6     2     7 1   
     7     2    33 1   
     8     3    34 1   
     9     3    48 1   
    10     4    21 1   
    11     4    35 1   
    12     4    48 1   
    13     5    27 2   
    14     5    29 1   
    15     5    49 1   
    16     6     8 1   
    17     6     9 1   
    18     7    26 1   
    19     7    29 2   
    20     8    36 1   
    21     8    37 1   
    22     8    38 1   
    23     9    10 2   
    24     9    11 1   
    25    11    12 ar  
    26    11    17 ar  
    27    12    13 ar  
    28    12    39 1   
    29    13    14 1   
    30    13    15 ar  
    31    15    16 ar  
    32    15    18 1   
    33    16    17 ar  
    34    16    40 1   
    35    17    41 1   
    36    18    19 1   
    37    18    23 1   
    38    19    20 2   
    39    19    21 1   
    40    21    22 1   
    41    21    42 1   
    42    22    23 1   
    43    22    43 1   
    44    22    44 1   
    45    23    45 1   
    46    23    46 1   
    47    24    48 2   
    48    25    48 2   
    49    26    27 1   
    50    27    28 1   
    51    29    47 1   
@<TRIPOS>SUBSTRUCTURE
     1 48U         1 TEMP              0 ****  ****    0 ROOT
