@<TRIPOS>MOLECULE
48V
   20    19     1     0     0
SMALL
No Charge or Current Charge


@<TRIPOS>ATOM
      1 O10         -4.1170     0.4220    -0.7480 o          1 48V      -0.718000
      2 N01          2.0530     1.9130    -0.0830 n8         1 48V      -0.960200
      3 C02          2.0270     0.4670     0.3440 c3         1 48V       0.108500
      4 C03          3.3330    -0.3450     0.0090 c          1 48V       0.557100
      5 O04          4.2260     0.0750    -0.7140 o          1 48V      -0.630100
      6 N05          3.4560    -1.5700     0.5740 nt         1 48V      -0.608000
      7 C06          0.7720    -0.2640    -0.2110 c3         1 48V       0.021600
      8 S07         -0.8110     0.4380     0.4560 ss         1 48V      -0.347000
      9 C08         -2.0350    -0.6840    -0.3850 c3         1 48V      -0.084400
     10 C09         -3.5080    -0.3650    -0.0340 c          1 48V       0.735000
     11 O1          -4.0080    -0.9260     0.9320 o          1 48V      -0.718000
     12 H4           1.9490     0.4520     1.4400 h1         1 48V       0.070700
     13 H5           4.2820    -2.1190     0.3870 hn         1 48V       0.307500
     14 H6           2.7340    -1.9260     1.1840 hn         1 48V       0.307500
     15 H7           0.7600    -0.2030    -1.3070 h1         1 48V       0.048200
     16 H8           0.8090    -1.3250     0.0670 h1         1 48V       0.048200
     17 H9          -1.9080    -0.5990    -1.4710 h1         1 48V       0.033200
     18 H10         -1.8240    -1.7210    -0.0960 h1         1 48V       0.033200
     19 H1           2.8920     2.3580     0.3090 hn         1 48V       0.398500
     20 H2           2.2270     1.9520    -1.0940 hn         1 48V       0.398500
@<TRIPOS>BOND
     1     1    10 1   
     2     2     3 1   
     3     2    19 1   
     4     2    20 1   
     5     3     4 1   
     6     3     7 1   
     7     3    12 1   
     8     4     5 2   
     9     4     6 1   
    10     6    13 1   
    11     6    14 1   
    12     7     8 1   
    13     7    15 1   
    14     7    16 1   
    15     8     9 1   
    16     9    10 1   
    17     9    17 1   
    18     9    18 1   
    19    10    11 1   
@<TRIPOS>SUBSTRUCTURE
     1 48V         1 TEMP              0 ****  ****    0 ROOT
