@<TRIPOS>MOLECULE
48V
   20    19     1     0     0
SMALL
abcg2


@<TRIPOS>ATOM
      1 O10         -3.5330     0.8400     0.4850 o          1 48V      -0.718000
      2 N01          1.9770     1.8010    -0.0970 n8         1 48V      -0.960200
      3 C02          1.9470     0.4130     0.2950 c3         1 48V       0.108500
      4 C03          3.2150    -0.3670    -0.0740 c          1 48V       0.557100
      5 O04          3.8740    -0.0910    -1.0660 o          1 48V      -0.630100
      6 N05          3.5130    -1.3810     0.7490 nt         1 48V      -0.608000
      7 C06          0.7580    -0.2940    -0.3530 c3         1 48V       0.021600
      8 S07         -0.7810     0.5760     0.0650 ss         1 48V      -0.347000
      9 C08         -1.9580    -0.7390    -0.3360 c3         1 48V      -0.084400
     10 C09         -3.3960    -0.2870    -0.0220 c          1 48V       0.735000
     11 O1          -4.2880    -1.1060    -0.3080 o          1 48V      -0.718000
     12 H4           1.8110     0.3710     1.3800 h1         1 48V       0.070700
     13 H5           4.3000    -1.9820     0.5650 hn         1 48V       0.307500
     14 H6           2.9710    -1.5710     1.5750 hn         1 48V       0.307500
     15 H7           0.8900    -0.3350    -1.4380 h1         1 48V       0.048200
     16 H8           0.6940    -1.3230     0.0060 h1         1 48V       0.048200
     17 H9          -1.8760    -1.0090    -1.3920 h1         1 48V       0.033200
     18 H10         -1.7180    -1.6390     0.2370 h1         1 48V       0.033200
     19 H1           2.7320     2.2800     0.3770 hn         1 48V       0.398500
     20 H2           2.1760     1.8730    -1.0880 hn         1 48V       0.398500
@<TRIPOS>BOND
     1     1    10 1   
     2     2     3 1   
     3     2    19 1   
     4     2    20 1   
     5     3     4 1   
     6     3     7 1   
     7     3    12 1   
     8     4     5 2   
     9     4     6 1   
    10     6    13 1   
    11     6    14 1   
    12     7     8 1   
    13     7    15 1   
    14     7    16 1   
    15     8     9 1   
    16     9    10 1   
    17     9    17 1   
    18     9    18 1   
    19    10    11 1   
@<TRIPOS>SUBSTRUCTURE
     1 48V         1 TEMP              0 ****  ****    0 ROOT
