@<TRIPOS>MOLECULE
48W
   61    64     1     0     0
SMALL
No Charge or Current Charge


@<TRIPOS>ATOM
      1 C1           8.3930     2.7820    21.0560 c3         1 48W      -0.102100
      2 C2           8.0700     4.1710    20.4440 c3         1 48W       0.053700
      3 N3           7.8810     5.2260    21.4860 n          1 48W      -0.395800
      4 C4           7.5190     4.9810    22.8990 c5         1 48W       0.105000
      5 C5           6.8320     6.3200    23.3000 c5         1 48W      -0.091400
      6 C6           7.5820     7.3640    22.4240 c5         1 48W       0.121500
      7 N7           6.6930     8.5650    22.2620 n7         1 48W      -0.848300
      8 S8           6.5390     9.7620    23.4150 sy         1 48W       1.176600
      9 O9           5.2260     9.5680    24.0360 o          1 48W      -0.537000
     10 O10          6.8880    10.9830    22.6870 o          1 48W      -0.537000
     11 C11          7.8640     9.3960    24.5790 ca         1 48W      -0.315500
     12 C12          9.1920     9.7740    24.2870 ca         1 48W      -0.035000
     13 C13         10.2230     9.4810    25.1950 ca         1 48W      -0.105000
     14 C14          9.9380     8.8170    26.4010 ca         1 48W       0.008000
     15 C15         10.9710     8.5200    27.3090 ca         1 48W      -0.103000
     16 C16         10.6800     7.8590    28.5130 ca         1 48W       0.143000
     17 Cl1         11.9740     7.4890    29.6450 cl         1 48W      -0.200000
     18 C18          9.3590     7.4920    28.8170 ca         1 48W      -0.107000
     19 C19          8.3220     7.7870    27.9140 ca         1 48W      -0.075000
     20 C20          8.6080     8.4500    26.7040 ca         1 48W      -0.070000
     21 C21          7.5740     8.7450    25.7960 ca         1 48W       0.021000
     22 C22          7.8590     6.5740    21.1140 c          1 48W       0.559000
     23 O23          8.0260     6.9980    19.9760 o          1 48W      -0.563000
     24 C24          6.8640     4.0600    19.4490 c          1 48W       0.590100
     25 O25          5.7550     4.4740    19.7740 o          1 48W      -0.590100
     26 N26          7.0350     3.3880    18.2030 n          1 48W      -0.407800
     27 C27          8.4120     3.3430    17.5880 c3         1 48W       0.084000
     28 C28          8.6600     2.4910    16.3260 c3         1 48W       0.084000
     29 N29          8.0240     1.1610    16.4160 n          1 48W      -0.418800
     30 C30          8.8740    -0.0220    16.6740 c3         1 48W       0.087300
     31 C31          6.6330     1.0360    16.2680 c          1 48W       0.567000
     32 O32          6.0750    -0.0480    16.3780 o          1 48W      -0.563000
     33 C33          5.8320     2.3260    16.0930 c3         1 48W      -0.178400
     34 C34          5.7830     3.1350    17.4060 c3         1 48W       0.101000
     35 H1           9.2600     2.8480    21.7250 hc         1 48W       0.053033
     36 H2           7.5410     2.3990    21.6300 hc         1 48W       0.053033
     37 H3           8.6240     2.0440    20.2800 hc         1 48W       0.053033
     38 H4           8.9420     4.4820    19.8570 h1         1 48W       0.082700
     39 H5           6.8390     4.1280    23.0210 h1         1 48W       0.060700
     40 H6           8.4210     4.7970    23.4990 h1         1 48W       0.060700
     41 H7           5.7670     6.2870    23.0430 hc         1 48W       0.084200
     42 H8           6.9030     6.5150    24.3740 hc         1 48W       0.084200
     43 H9           8.5670     7.6120    22.8400 h1         1 48W       0.061700
     44 H10          7.0130     9.1410    21.4820 hn         1 48W       0.504000
     45 H11          9.4310    10.2870    23.3560 ha         1 48W       0.134000
     46 H12         11.2440     9.7710    24.9570 ha         1 48W       0.123000
     47 H13         11.9970     8.8000    27.0850 ha         1 48W       0.136000
     48 H14          9.1400     6.9810    29.7510 ha         1 48W       0.135000
     49 H15          7.3010     7.4990    28.1570 ha         1 48W       0.124000
     50 H16          6.5500     8.4600    26.0360 ha         1 48W       0.139000
     51 H17          9.1090     2.9510    18.3360 h1         1 48W       0.057200
     52 H18          8.7260     4.3730    17.3720 h1         1 48W       0.057200
     53 H19          9.7450     2.3670    16.2060 h1         1 48W       0.058700
     54 H20          8.3280     3.0230    15.4280 h1         1 48W       0.058700
     55 H21          9.9060     0.2810    16.8950 h1         1 48W       0.045033
     56 H22          8.4820    -0.5800    17.5340 h1         1 48W       0.045033
     57 H23          8.8750    -0.6740    15.7910 h1         1 48W       0.045033
     58 H24          4.8080     2.0840    15.7860 hc         1 48W       0.076700
     59 H25          6.2810     2.9740    15.3370 hc         1 48W       0.076700
     60 H26          5.3220     4.1060    17.1820 h1         1 48W       0.066700
     61 H27          5.0850     2.6080    18.0720 h1         1 48W       0.066700
@<TRIPOS>BOND
     1     1     2 1   
     2     1    35 1   
     3     1    36 1   
     4     1    37 1   
     5     2     3 1   
     6     2    24 1   
     7     2    38 1   
     8     3     4 1   
     9     3    22 1   
    10     4     5 1   
    11     4    39 1   
    12     4    40 1   
    13     5     6 1   
    14     5    41 1   
    15     5    42 1   
    16     6     7 1   
    17     6    22 1   
    18     6    43 1   
    19     7     8 1   
    20     7    44 1   
    21     8     9 2   
    22     8    10 2   
    23     8    11 1   
    24    11    12 ar  
    25    11    21 ar  
    26    12    13 ar  
    27    12    45 1   
    28    13    14 ar  
    29    13    46 1   
    30    14    15 ar  
    31    14    20 ar  
    32    15    16 ar  
    33    15    47 1   
    34    16    17 1   
    35    16    18 ar  
    36    18    19 ar  
    37    18    48 1   
    38    19    20 ar  
    39    19    49 1   
    40    20    21 ar  
    41    21    50 1   
    42    22    23 2   
    43    24    25 2   
    44    24    26 1   
    45    26    27 1   
    46    26    34 1   
    47    27    28 1   
    48    27    51 1   
    49    27    52 1   
    50    28    29 1   
    51    28    53 1   
    52    28    54 1   
    53    29    30 1   
    54    29    31 1   
    55    30    55 1   
    56    30    56 1   
    57    30    57 1   
    58    31    32 2   
    59    31    33 1   
    60    33    34 1   
    61    33    58 1   
    62    33    59 1   
    63    34    60 1   
    64    34    61 1   
@<TRIPOS>SUBSTRUCTURE
     1 48W         1 TEMP              0 ****  ****    0 ROOT
