@<TRIPOS>MOLECULE
48W
   61    64     1     0     0
SMALL
abcg2


@<TRIPOS>ATOM
      1 C1           7.9490     2.6420    20.8400 c3         1 48W      -0.102100
      2 C2           7.8110     4.0850    20.3530 c3         1 48W       0.053700
      3 N3           7.2710     4.9510    21.3880 n          1 48W      -0.395800
      4 C4           6.2840     4.5430    22.3940 c5         1 48W       0.105000
      5 C5           5.7640     5.8820    22.9350 c5         1 48W      -0.091400
      6 C6           6.9440     6.8250    22.7150 c5         1 48W       0.121500
      7 N7           6.6190     8.2230    22.4450 n7         1 48W      -0.848300
      8 S8           6.3450     9.2310    23.7140 sy         1 48W       1.176600
      9 O9           5.2720     8.6560    24.4870 o          1 48W      -0.537000
     10 O10          6.1950    10.5500    23.1490 o          1 48W      -0.537000
     11 C11          7.8180     9.1940    24.6970 ca         1 48W      -0.315500
     12 C12          8.9440     9.9290    24.2570 ca         1 48W      -0.035000
     13 C13         10.1120     9.8570    24.9640 ca         1 48W      -0.105000
     14 C14         10.2110     9.0480    26.1260 ca         1 48W       0.008000
     15 C15         11.4140     8.9530    26.8620 ca         1 48W      -0.103000
     16 C16         11.4630     8.1510    27.9710 ca         1 48W       0.143000
     17 CL1         12.9500     8.0270    28.8820 cl         1 48W      -0.200000
     18 C18         10.3450     7.4130    28.4110 ca         1 48W      -0.107000
     19 C19          9.1710     7.4970    27.7120 ca         1 48W      -0.075000
     20 C20          9.0690     8.3100    26.5570 ca         1 48W      -0.070000
     21 C21          7.8690     8.4020    25.8160 ca         1 48W       0.021000
     22 C22          7.6340     6.2390    21.4860 c          1 48W       0.559000
     23 O23          8.3900     6.8570    20.7420 o          1 48W      -0.563000
     24 C24          6.9040     4.1550    19.1120 c          1 48W       0.590100
     25 O25          5.6930     4.3300    19.2540 o          1 48W      -0.590100
     26 N26          7.4700     4.0160    17.8930 n          1 48W      -0.407800
     27 C27          8.8620     3.6730    17.6190 c3         1 48W       0.084000
     28 C28          8.9210     2.4770    16.6610 c3         1 48W       0.084000
     29 N29          8.0780     1.3820    17.1200 n          1 48W      -0.418800
     30 C30          8.7260     0.2610    17.7880 c3         1 48W       0.087300
     31 C31          6.7310     1.4210    16.9930 c          1 48W       0.567000
     32 O32          6.0070     0.5040    17.3910 o          1 48W      -0.563000
     33 C33          6.1070     2.6270    16.2980 c3         1 48W      -0.178400
     34 C34          6.6100     4.0330    16.7120 c3         1 48W       0.101000
     35 H1           8.5590     2.6090    21.7420 hc         1 48W       0.053033
     36 H2           6.9740     2.2050    21.0550 hc         1 48W       0.053033
     37 H3           8.4300     2.0320    20.0780 hc         1 48W       0.053033
     38 H4           8.7930     4.4880    20.1160 h1         1 48W       0.082700
     39 H5           5.4990     3.9500    21.9330 h1         1 48W       0.060700
     40 H6           6.7630     3.9490    23.1750 h1         1 48W       0.060700
     41 H7           4.9200     6.2270    22.3360 hc         1 48W       0.084200
     42 H8           5.4550     5.8160    23.9740 hc         1 48W       0.084200
     43 H9           7.6620     6.7410    23.5410 h1         1 48W       0.061700
     44 H10          7.2620     8.6360    21.7720 hn         1 48W       0.504000
     45 H11          8.8730    10.5430    23.3700 ha         1 48W       0.134000
     46 H12         10.9800    10.4180    24.6420 ha         1 48W       0.123000
     47 H13         12.2840     9.5110    26.5410 ha         1 48W       0.136000
     48 H14         10.4270     6.7910    29.2920 ha         1 48W       0.135000
     49 H15          8.3040     6.9360    28.0370 ha         1 48W       0.124000
     50 H16          7.0000     7.8440    26.1360 ha         1 48W       0.139000
     51 H17          9.3770     3.4220    18.5400 h1         1 48W       0.057200
     52 H18          9.3750     4.5230    17.1620 h1         1 48W       0.057200
     53 H19          9.9470     2.1200    16.5980 h1         1 48W       0.058700
     54 H20          8.6280     2.7740    15.6550 h1         1 48W       0.058700
     55 H21          9.5270     0.6330    18.4260 h1         1 48W       0.045033
     56 H22          7.9980    -0.2680    18.3950 h1         1 48W       0.045033
     57 H23          9.1530    -0.4320    17.0580 h1         1 48W       0.045033
     58 H24          5.0410     2.5450    16.4960 hc         1 48W       0.076700
     59 H25          6.2450     2.4950    15.2210 hc         1 48W       0.076700
     60 H26          7.1800     4.4920    15.9060 h1         1 48W       0.066700
     61 H27          5.7580     4.6700    16.9250 h1         1 48W       0.066700
@<TRIPOS>BOND
     1     1     2 1   
     2     1    35 1   
     3     1    36 1   
     4     1    37 1   
     5     2     3 1   
     6     2    24 1   
     7     2    38 1   
     8     3     4 1   
     9     3    22 1   
    10     4     5 1   
    11     4    39 1   
    12     4    40 1   
    13     5     6 1   
    14     5    41 1   
    15     5    42 1   
    16     6     7 1   
    17     6    22 1   
    18     6    43 1   
    19     7     8 1   
    20     7    44 1   
    21     8     9 2   
    22     8    10 2   
    23     8    11 1   
    24    11    12 ar  
    25    11    21 ar  
    26    12    13 ar  
    27    12    45 1   
    28    13    14 ar  
    29    13    46 1   
    30    14    15 ar  
    31    14    20 ar  
    32    15    16 ar  
    33    15    47 1   
    34    16    17 1   
    35    16    18 ar  
    36    18    19 ar  
    37    18    48 1   
    38    19    20 ar  
    39    19    49 1   
    40    20    21 ar  
    41    21    50 1   
    42    22    23 2   
    43    24    25 2   
    44    24    26 1   
    45    26    27 1   
    46    26    34 1   
    47    27    28 1   
    48    27    51 1   
    49    27    52 1   
    50    28    29 1   
    51    28    53 1   
    52    28    54 1   
    53    29    30 1   
    54    29    31 1   
    55    30    55 1   
    56    30    56 1   
    57    30    57 1   
    58    31    32 2   
    59    31    33 1   
    60    33    34 1   
    61    33    58 1   
    62    33    59 1   
    63    34    60 1   
    64    34    61 1   
@<TRIPOS>SUBSTRUCTURE
     1 48W         1 TEMP              0 ****  ****    0 ROOT
