@<TRIPOS>MOLECULE
48Y
   21    20     1     0     0
SMALL
bcc


@<TRIPOS>ATOM
      1 OAB         -2.8720    -0.6750    -1.8620 o          1 48Y      -0.879800
      2 CAK         -2.8370    -0.5350    -0.6190 c          1 48Y       0.915600
      3 OAF         -3.7330    -0.0510     0.0960 o          1 48Y      -0.879800
      4 CAM         -1.5300    -1.0020     0.0610 c3         1 48Y       0.051100
      5 OAD         -1.6270    -1.1130     1.4590 oh         1 48Y      -0.682800
      6 CAN         -0.3760    -0.0650    -0.3500 c3         1 48Y      -0.212700
      7 CAL         -0.6260     1.3470     0.2040 c          1 48Y       0.949600
      8 OAG         -0.5990     2.3160    -0.5730 o          1 48Y      -0.875300
      9 OAC         -0.8410     1.4190     1.4460 o          1 48Y      -0.875300
     10 CAI          0.9800    -0.6010     0.1180 c3         1 48Y      -0.029400
     11 CAH          2.1590     0.1670    -0.4600 c3         1 48Y      -0.191400
     12 CAJ          3.5550    -0.3530    -0.0790 c          1 48Y       0.919600
     13 OAE          3.6300    -1.2620     0.7710 o          1 48Y      -0.893300
     14 OAA          4.5200     0.1950    -0.6560 o          1 48Y      -0.893300
     15 H2          -1.2960    -2.0010    -0.3320 h1         1 48Y      -0.005300
     16 H3          -1.4420    -0.2010     1.7710 ho         1 48Y       0.456000
     17 H4          -0.3680    -0.0210    -1.4420 hc         1 48Y       0.045700
     18 H6           1.0290    -0.5900     1.2080 hc         1 48Y       0.017200
     19 H7           1.0590    -1.6530    -0.1760 hc         1 48Y       0.017200
     20 H8           2.0840     0.1850    -1.5530 hc         1 48Y       0.022700
     21 H9           2.1030     1.2210    -0.1630 hc         1 48Y       0.022700
@<TRIPOS>BOND
     1     1     2 1   
     2     2     3 1   
     3     2     4 1   
     4     4     5 1   
     5     4     6 1   
     6     4    15 1   
     7     5    16 1   
     8     6     7 1   
     9     6    10 1   
    10     6    17 1   
    11     7     8 1   
    12     7     9 1   
    13    10    11 1   
    14    10    18 1   
    15    10    19 1   
    16    11    12 1   
    17    11    20 1   
    18    11    21 1   
    19    12    13 1   
    20    12    14 1   
@<TRIPOS>SUBSTRUCTURE
     1 48Y         1 TEMP              0 ****  ****    0 ROOT
