@<TRIPOS>MOLECULE
48Y
   21    20     1     0     0
SMALL
No Charge or Current Charge


@<TRIPOS>ATOM
      1 OAB         -3.1450    -1.1170    -1.8660 o          1 48Y      -0.774500
      2 CAK         -2.8650    -0.5740    -0.8040 c          1 48Y       0.705000
      3 OAF         -3.6290     0.2080    -0.2500 o          1 48Y      -0.774500
      4 CAM         -1.5250    -1.0130    -0.0650 c3         1 48Y       0.074300
      5 OAD         -1.6630    -1.2050     1.3650 oh         1 48Y      -0.745000
      6 CAN         -0.3770     0.0090    -0.3120 c3         1 48Y      -0.212700
      7 CAL         -0.6380     1.3350     0.4370 c          1 48Y       0.739000
      8 OAG         -0.7320     2.3640    -0.2150 o          1 48Y      -0.770000
      9 OAC         -0.7710     1.2940     1.6540 o          1 48Y      -0.770000
     10 CAI          1.0250    -0.5840     0.0230 c3         1 48Y      -0.029400
     11 CAH          2.2130     0.3340    -0.3600 c3         1 48Y      -0.191400
     12 CAJ          3.5500    -0.3750    -0.0710 c          1 48Y       0.709000
     13 OAE          4.0500    -0.2450     1.0360 o          1 48Y      -0.788000
     14 OAA          4.0410    -1.0680    -0.9490 o          1 48Y      -0.788000
     15 H2          -1.2240    -1.9680    -0.5170 h1         1 48Y      -0.005300
     16 H3          -1.4250    -0.3090     1.7360 ho         1 48Y       0.495000
     17 H4          -0.3630     0.2310    -1.3860 hc         1 48Y       0.045700
     18 H6           1.0830    -0.8140     1.0940 hc         1 48Y       0.017200
     19 H7           1.1380    -1.5380    -0.5070 hc         1 48Y       0.017200
     20 H8           2.1100     0.5280    -1.4350 hc         1 48Y       0.022700
     21 H9           2.1190     1.2330     0.2620 hc         1 48Y       0.022700
@<TRIPOS>BOND
     1     1     2 1   
     2     2     3 1   
     3     2     4 1   
     4     4     5 1   
     5     4     6 1   
     6     4    15 1   
     7     5    16 1   
     8     6     7 1   
     9     6    10 1   
    10     6    17 1   
    11     7     8 1   
    12     7     9 1   
    13    10    11 1   
    14    10    18 1   
    15    10    19 1   
    16    11    12 1   
    17    11    20 1   
    18    11    21 1   
    19    12    13 1   
    20    12    14 1   
@<TRIPOS>SUBSTRUCTURE
     1 48Y         1 TEMP              0 ****  ****    0 ROOT
