@<TRIPOS>MOLECULE
48Z
   23    23     1     0     0
SMALL
No Charge or Current Charge


@<TRIPOS>ATOM
      1 O1           3.1640    -3.7080     1.7520 oh         1 48Z      -0.669000
      2 P            5.1620    -4.4720    -1.7610 p5         1 48Z       1.221800
      3 C1           3.1530    -2.3060     1.5220 c5         1 48Z       0.354300
      4 C2           1.7540    -1.7540     1.0350 c5         1 48Z       0.168300
      5 F2           1.3300    -0.6630     1.8060 f          1 48Z      -0.256000
      6 C3           2.0340    -1.3110    -0.4500 c5         1 48Z       0.109300
      7 O3           0.9070    -1.4840    -1.3270 oh         1 48Z      -0.708000
      8 C4           3.2060    -2.2730    -0.7600 c5         1 48Z       0.130300
      9 O4           4.0190    -2.0820     0.4160 os         1 48Z      -0.443000
     10 C5           4.0370    -2.0390    -2.0500 c3         1 48Z       0.212600
     11 O5           5.2140    -2.8840    -2.0670 os         1 48Z      -0.566400
     12 OP1          4.2970    -5.1960    -2.7330 o          1 48Z      -0.761000
     13 OP2          4.8600    -4.7890    -0.3330 o          1 48Z      -0.761000
     14 SP3          7.1640    -4.8600    -2.1900 sh         1 48Z      -0.631200
     15 H2           0.9840    -2.5350     1.0930 h1         1 48Z       0.085700
     16 H3           2.3900    -0.2710    -0.4820 h1         1 48Z       0.059700
     17 HO3          0.2360    -0.8030    -1.0820 ho         1 48Z       0.511000
     18 H4           2.8200    -3.3020    -0.7920 h1         1 48Z       0.073700
     19 H52          3.4050    -2.2450    -2.9240 h1         1 48Z       0.029200
     20 H51          4.3330    -0.9830    -2.0940 h1         1 48Z       0.029200
     21 HSP3         6.6830    -5.1700    -3.4160 hs         1 48Z       0.290800
     22 HO1          3.8100    -4.0510     1.0800 ho         1 48Z       0.453000
     23 H1           3.5170    -1.7670     2.4070 h2         1 48Z       0.067700
@<TRIPOS>BOND
     1     1     3 1   
     2     1    22 1   
     3     2    11 1   
     4     2    12 1   
     5     2    13 1   
     6     2    14 1   
     7     3     4 1   
     8     3     9 1   
     9     3    23 1   
    10     4     5 1   
    11     4     6 1   
    12     4    15 1   
    13     6     7 1   
    14     6     8 1   
    15     6    16 1   
    16     7    17 1   
    17     8     9 1   
    18     8    10 1   
    19     8    18 1   
    20    10    11 1   
    21    10    19 1   
    22    10    20 1   
    23    14    21 1   
@<TRIPOS>SUBSTRUCTURE
     1 48Z         1 TEMP              0 ****  ****    0 ROOT
