@<TRIPOS>MOLECULE
48Z
   23    23     1     0     0
SMALL
abcg2


@<TRIPOS>ATOM
      1 O1           2.6990    -2.6300     2.6880 oh         1 48Z      -0.669000
      2 P            5.1180    -3.8930    -3.4420 p5         1 48Z       1.221800
      3 C1           3.3520    -1.9290     1.6820 c5         1 48Z       0.354300
      4 C2           2.3220    -1.0780     0.9550 c5         1 48Z       0.168300
      5 F2           2.9930    -0.0510     0.2990 f          1 48Z      -0.256000
      6 C3           1.7530    -2.0330    -0.0860 c5         1 48Z       0.109300
      7 O3           0.6490    -2.6840     0.4840 oh         1 48Z      -0.708000
      8 C4           2.9480    -2.9680    -0.3660 c5         1 48Z       0.130300
      9 O4           3.8830    -2.7620     0.6890 os         1 48Z      -0.443000
     10 C5           3.6010    -2.6650    -1.6980 c3         1 48Z       0.212600
     11 O5           4.7080    -3.5290    -1.8860 os         1 48Z      -0.566400
     12 OP1          5.4320    -2.6300    -4.1780 o          1 48Z      -0.761000
     13 OP2          4.1780    -4.9210    -3.9830 o          1 48Z      -0.761000
     14 SP3          6.9140    -4.9710    -3.0300 sh         1 48Z      -0.631200
     15 H2           1.5670    -0.6380     1.6080 h1         1 48Z       0.085700
     16 H3           1.4640    -1.4780    -0.9880 h1         1 48Z       0.059700
     17 HO3          0.3050    -3.3170    -0.1550 ho         1 48Z       0.511000
     18 H4           2.6140    -4.0130    -0.3650 h1         1 48Z       0.073700
     19 H52          2.8400    -2.7980    -2.4760 h1         1 48Z       0.029200
     20 H51          3.9190    -1.6170    -1.7320 h1         1 48Z       0.029200
     21 HSP3         7.6880    -3.9330    -2.6880 hs         1 48Z       0.290800
     22 HO1          3.3530    -3.0790     3.2340 ho         1 48Z       0.453000
     23 H1           4.1780    -1.3300     2.0830 h2         1 48Z       0.067700
@<TRIPOS>BOND
     1     1     3 1   
     2     1    22 1   
     3     2    11 1   
     4     2    12 1   
     5     2    13 1   
     6     2    14 1   
     7     3     4 1   
     8     3     9 1   
     9     3    23 1   
    10     4     5 1   
    11     4     6 1   
    12     4    15 1   
    13     6     7 1   
    14     6     8 1   
    15     6    16 1   
    16     7    17 1   
    17     8     9 1   
    18     8    10 1   
    19     8    18 1   
    20    10    11 1   
    21    10    19 1   
    22    10    20 1   
    23    14    21 1   
@<TRIPOS>SUBSTRUCTURE
     1 48Z         1 TEMP              0 ****  ****    0 ROOT
