@<TRIPOS>MOLECULE
490
   55    59     1     0     0
SMALL
No Charge or Current Charge


@<TRIPOS>ATOM
      1 C4           5.4530    -1.6210    -0.5120 cc         1 490      -0.176000
      2 C7           5.8340    -4.1310    -0.7400 c3         1 490       0.073900
      3 C8           4.3530     0.5660    -0.0990 cd         1 490      -0.086200
      4 C10          4.5830     3.4530    -0.0210 c          1 490       0.546200
      5 C17         -0.8720    -0.1470    -1.5580 ca         1 490      -0.177000
      6 C20         -2.2260     0.2230    -1.4890 ca         1 490      -0.050000
      7 C21         -0.9560    -0.9020     0.7490 ca         1 490      -0.177000
      8 C22         -4.4170     0.4380    -0.2300 cp         1 490       0.040000
      9 C24         -6.1970     2.0630    -0.7840 ca         1 490      -0.091000
     10 C26         -6.7080     0.0670     0.4520 ca         1 490      -0.081200
     11 C25         -4.8490     1.6540    -0.8320 ca         1 490      -0.131000
     12 C19         -2.3120    -0.5330     0.8160 ca         1 490      -0.050000
     13 C23         -7.1490     1.2630    -0.1330 ca         1 490      -0.117000
     14 C29         -6.5570    -1.8840     1.4960 cc         1 490       0.415700
     15 C18         -2.9750     0.0340    -0.3010 cp         1 490      -0.069000
     16 C3           4.3420    -0.8930    -0.1650 cd         1 490      -0.120800
     17 C27         -5.3970    -0.3630     0.4230 ca         1 490       0.073400
     18 C16         -0.2310    -0.7100    -0.4450 ca         1 490       0.142100
     19 C2           3.2930    -1.8340     0.0870 cd         1 490       0.255300
     20 C12          3.2000     1.3700     0.2380 cd         1 490      -0.066000
     21 C11          3.3360     2.7420     0.2690 cc         1 490      -0.322200
     22 C9           5.5450     1.2250    -0.3800 cc         1 490      -0.033400
     23 C1           1.8590    -1.6060     0.5210 c3         1 490       0.138300
     24 N28         -5.3070    -1.6020     1.0820 nd         1 490      -0.574100
     25 N6           3.7050    -3.0810    -0.0860 nc         1 490      -0.516800
     26 N5           5.0230    -2.9390    -0.4540 na         1 490       0.141800
     27 N30         -7.4320    -0.8730     1.1210 na         1 490      -0.182600
     28 N13          5.6700     2.6190    -0.3450 n          1 490      -0.267000
     29 O32          4.6650     4.6730     0.0160 o          1 490      -0.566000
     30 O15          1.1000    -1.0470    -0.5710 os         1 490      -0.339100
     31 H1           6.4650    -1.3540    -0.7860 h4         1 490       0.153000
     32 H2           5.8900    -4.7600     0.1560 h1         1 490       0.058033
     33 H3           5.3750    -4.6990    -1.5580 h1         1 490       0.058033
     34 H4           6.8470    -3.8290    -1.0340 h1         1 490       0.058033
     35 H5          -0.3170     0.0040    -2.4800 ha         1 490       0.121500
     36 H6          -2.7040     0.6490    -2.3680 ha         1 490       0.122000
     37 H7          -0.4910    -1.3310     1.6310 ha         1 490       0.121500
     38 H8          -6.5000     2.9990    -1.2490 ha         1 490       0.113000
     39 H9          -4.1260     2.2930    -1.3310 ha         1 490       0.117000
     40 H10         -2.8510    -0.6760     1.7490 ha         1 490       0.122000
     41 H11         -8.1920     1.5660    -0.0900 ha         1 490       0.117000
     42 H12         -6.8760    -2.7620     2.0450 h5         1 490       0.058800
     43 H13          2.2340     0.9430     0.4620 ha         1 490       0.187000
     44 H14          2.4970     3.3830     0.5150 ha         1 490       0.209000
     45 H15          6.4810     0.7520    -0.6450 h4         1 490       0.195000
     46 H16         -9.4120    -0.7280     0.4070 h1         1 490       0.051033
     47 H17         -9.2240    -1.6490     1.9280 h1         1 490       0.051033
     48 H18         -9.0940     0.1340     1.9440 h1         1 490       0.051033
     49 H19          6.8490     3.9360    -1.5140 h1         1 490       0.053033
     50 H20          7.3030     3.8490     0.2140 h1         1 490       0.053033
     51 H21          7.7320     2.5170    -0.8920 h1         1 490       0.053033
     52 H22          1.4220    -2.5650     0.8300 h1         1 490       0.051200
     53 H23          1.8500    -0.9480     1.3980 h1         1 490       0.051200
     54 C14          6.9660     3.2650    -0.6530 c3         1 490       0.077300
     55 C31         -8.8790    -0.7730     1.3650 c3         1 490       0.067900
@<TRIPOS>BOND
     1     1    16 2   
     2     1    26 1   
     3     1    31 1   
     4     2    26 1   
     5     2    32 1   
     6     2    33 1   
     7     2    34 1   
     8     3    16 1   
     9     3    20 1   
    10     3    22 2   
    11     4    21 1   
    12     4    28 1   
    13     4    29 2   
    14     5     6 ar  
    15     5    18 ar  
    16     5    35 1   
    17     6    15 ar  
    18     6    36 1   
    19     7    12 ar  
    20     7    18 ar  
    21     7    37 1   
    22     8    11 ar  
    23     8    15 1   
    24     8    17 ar  
    25     9    11 ar  
    26     9    13 ar  
    27     9    38 1   
    28    10    13 ar  
    29    10    17 ar  
    30    10    27 1   
    31    11    39 1   
    32    12    15 ar  
    33    12    40 1   
    34    13    41 1   
    35    14    24 2   
    36    14    27 1   
    37    14    42 1   
    38    16    19 1   
    39    17    24 1   
    40    18    30 1   
    41    19    23 1   
    42    19    25 2   
    43    20    21 2   
    44    20    43 1   
    45    21    44 1   
    46    22    28 1   
    47    22    45 1   
    48    23    30 1   
    49    23    52 1   
    50    23    53 1   
    51    25    26 1   
    52    27    55 1   
    53    28    54 1   
    54    46    55 1   
    55    47    55 1   
    56    48    55 1   
    57    49    54 1   
    58    50    54 1   
    59    51    54 1   
@<TRIPOS>SUBSTRUCTURE
     1 490         1 TEMP              0 ****  ****    0 ROOT
