@<TRIPOS>MOLECULE
490
   55    59     1     0     0
SMALL
abcg2


@<TRIPOS>ATOM
      1 C4           5.5110    -1.6950    -0.0440 cc         1 490      -0.176000
      2 C7           6.2820    -4.0700     0.0390 c3         1 490       0.073900
      3 C8           4.0190     0.3660     0.0130 cd         1 490      -0.086200
      4 C10          3.5710     3.1730    -0.1930 c          1 490       0.546200
      5 C17         -0.3170     0.3000    -1.0080 ca         1 490      -0.177000
      6 C20         -1.6150     0.7650    -0.9120 ca         1 490      -0.050000
      7 C21         -0.8160    -1.4010     0.6150 ca         1 490      -0.177000
      8 C22         -3.9170     0.6920     0.0510 cp         1 490       0.040000
      9 C24         -5.4700     2.5870     0.0820 ca         1 490      -0.091000
     10 C26         -6.3250     0.4080     0.3060 ca         1 490      -0.081200
     11 C25         -4.1760     2.0580    -0.0120 ca         1 490      -0.131000
     12 C19         -2.1160    -0.9220     0.7010 ca         1 490      -0.050000
     13 C23         -6.5760     1.7730     0.2450 ca         1 490      -0.117000
     14 C29         -6.3830    -1.7700     0.4230 cc         1 490       0.415700
     15 C18         -2.5450     0.1670    -0.0550 cp         1 490      -0.069000
     16 C3           4.2890    -1.0690     0.0960 cd         1 490      -0.120800
     17 C27         -5.0350    -0.1430     0.2130 ca         1 490       0.073400
     18 C16          0.0930    -0.7930    -0.2450 ca         1 490       0.142100
     19 C2           3.3910    -2.1390     0.3060 cd         1 490       0.255300
     20 C12          3.1190     1.0290     0.8870 cd         1 490      -0.066000
     21 C11          2.9000     2.3640     0.7880 cc         1 490      -0.322200
     22 C9           4.6420     1.1390    -0.9200 cc         1 490      -0.033400
     23 C1           1.9210    -2.0910     0.5380 c3         1 490       0.138300
     24 N28         -5.1130    -1.5140     0.2850 nd         1 490      -0.574100
     25 N6           4.0210    -3.3000     0.2860 nc         1 490      -0.516800
     26 N5           5.2980    -3.0140     0.0770 na         1 490       0.141800
     27 N30         -7.1650    -0.6640     0.4460 na         1 490      -0.182600
     28 N13          4.4400     2.4760    -1.0210 n          1 490      -0.267000
     29 O32          3.4270     4.3860    -0.3290 o          1 490      -0.566000
     30 O15          1.3690    -1.1940    -0.4090 os         1 490      -0.339100
     31 H1           6.4970    -1.2890    -0.2080 h4         1 490       0.153000
     32 H2           6.3810    -4.5360     1.0170 h1         1 490       0.058033
     33 H3           5.9940    -4.8240    -0.6890 h1         1 490       0.058033
     34 H4           7.2400    -3.6490    -0.2510 h1         1 490       0.058033
     35 H5           0.3860     0.7780    -1.6780 ha         1 490       0.121500
     36 H6          -1.9100     1.6060    -1.5270 ha         1 490       0.122000
     37 H7          -0.5370    -2.2550     1.2190 ha         1 490       0.121500
     38 H8          -5.6000     3.6600     0.0340 ha         1 490       0.113000
     39 H9          -3.3470     2.7470    -0.1140 ha         1 490       0.117000
     40 H10         -2.8000    -1.4110     1.3790 ha         1 490       0.122000
     41 H11         -7.5750     2.1810     0.3210 ha         1 490       0.117000
     42 H12         -6.8110    -2.7570     0.5150 h5         1 490       0.058800
     43 H13          2.6110     0.4670     1.6610 ha         1 490       0.187000
     44 H14          2.2170     2.8690     1.4570 ha         1 490       0.209000
     45 H15          5.3290     0.7140    -1.6390 h4         1 490       0.195000
     46 H16         -9.0570    -0.2510    -0.3540 h1         1 490       0.051033
     47 H17         -8.9760    -1.6170     0.7670 h1         1 490       0.051033
     48 H18         -8.8930     0.0340     1.3890 h1         1 490       0.051033
     49 H19          4.4470     3.7610    -2.6830 h1         1 490       0.053033
     50 H20          5.8090     3.9710    -1.5750 h1         1 490       0.053033
     51 H21          5.7430     2.5600    -2.6390 h1         1 490       0.053033
     52 H22          1.5010    -3.0970     0.4350 h1         1 490       0.051200
     53 H23          1.7000    -1.7480     1.5560 h1         1 490       0.051200
     54 C14          5.1490     3.2400    -2.0370 c3         1 490       0.077300
     55 C31         -8.6020    -0.6170     0.5660 c3         1 490       0.067900
@<TRIPOS>BOND
     1     1    16 2   
     2     1    26 1   
     3     1    31 1   
     4     2    26 1   
     5     2    32 1   
     6     2    33 1   
     7     2    34 1   
     8     3    16 1   
     9     3    20 1   
    10     3    22 2   
    11     4    21 1   
    12     4    28 1   
    13     4    29 2   
    14     5     6 ar  
    15     5    18 ar  
    16     5    35 1   
    17     6    15 ar  
    18     6    36 1   
    19     7    12 ar  
    20     7    18 ar  
    21     7    37 1   
    22     8    11 ar  
    23     8    15 1   
    24     8    17 ar  
    25     9    11 ar  
    26     9    13 ar  
    27     9    38 1   
    28    10    13 ar  
    29    10    17 ar  
    30    10    27 1   
    31    11    39 1   
    32    12    15 ar  
    33    12    40 1   
    34    13    41 1   
    35    14    24 2   
    36    14    27 1   
    37    14    42 1   
    38    16    19 1   
    39    17    24 1   
    40    18    30 1   
    41    19    23 1   
    42    19    25 2   
    43    20    21 2   
    44    20    43 1   
    45    21    44 1   
    46    22    28 1   
    47    22    45 1   
    48    23    30 1   
    49    23    52 1   
    50    23    53 1   
    51    25    26 1   
    52    27    55 1   
    53    28    54 1   
    54    46    55 1   
    55    47    55 1   
    56    48    55 1   
    57    49    54 1   
    58    50    54 1   
    59    51    54 1   
@<TRIPOS>SUBSTRUCTURE
     1 490         1 TEMP              0 ****  ****    0 ROOT
