@<TRIPOS>MOLECULE
492
   21    22     1     0     0
SMALL
abcg2


@<TRIPOS>ATOM
      1 N18         -4.1750    -0.8310    -0.8480 n8         1 492      -1.009200
      2 C17         -3.9230     0.1640     0.1780 c3         1 492       0.223100
      3 C8          -2.4690     0.5030     0.2240 cc         1 492      -0.219300
      4 S7          -1.3180    -0.6990    -0.2230 ss         1 492       0.272000
      5 C6           0.0120     0.3440     0.1540 cc         1 492      -0.151000
      6 C10         -0.4360     1.5650     0.5810 cd         1 492      -0.130000
      7 C9          -1.8520     1.6530     0.6140 cd         1 492      -0.134000
      8 C1           1.3740    -0.1100    -0.0180 cc         1 492      -0.126000
      9 S2           2.6620     1.0240    -0.2240 ss         1 492       0.206000
     10 C3           3.8320    -0.2240    -0.3310 cc         1 492      -0.245000
     11 C4           3.2600    -1.4550    -0.2310 cd         1 492      -0.127000
     12 C5           1.8540    -1.3930    -0.0490 cd         1 492      -0.133000
     13 HN18        -5.1100    -1.2010    -0.7440 hn         1 492       0.403000
     14 HN1A        -4.1370    -0.4000    -1.7630 hn         1 492       0.403000
     15 H17         -4.4940     1.0940     0.0700 h1         1 492       0.041700
     16 H17A        -4.2180    -0.2650     1.1400 h1         1 492       0.041700
     17 H10          0.2200     2.3740     0.8710 ha         1 492       0.134000
     18 H9          -2.3900     2.5360     0.9290 ha         1 492       0.130000
     19 H3           4.8750     0.0180    -0.4640 h4         1 492       0.149000
     20 H4           3.8210    -2.3770    -0.2770 ha         1 492       0.134000
     21 H5           1.2260    -2.2640     0.0750 ha         1 492       0.137000
@<TRIPOS>BOND
     1     1     2 1   
     2     1    13 1   
     3     1    14 1   
     4     2     3 1   
     5     2    15 1   
     6     2    16 1   
     7     3     4 1   
     8     3     7 2   
     9     4     5 1   
    10     5     6 2   
    11     5     8 1   
    12     6     7 1   
    13     6    17 1   
    14     7    18 1   
    15     8     9 1   
    16     8    12 2   
    17     9    10 1   
    18    10    11 2   
    19    10    19 1   
    20    11    12 1   
    21    11    20 1   
    22    12    21 1   
@<TRIPOS>SUBSTRUCTURE
     1 492         1 TEMP              0 ****  ****    0 ROOT
