@<TRIPOS>MOLECULE
492
   21    22     1     0     0
SMALL
No Charge or Current Charge


@<TRIPOS>ATOM
      1 N18         -4.5620    -0.1380    -0.9420 n8         1 492      -1.009200
      2 C17         -3.9110    -0.1730     0.3750 c3         1 492       0.223100
      3 C8          -2.4610     0.1820     0.2410 cc         1 492      -0.219300
      4 S7          -1.2150    -1.0680     0.2510 ss         1 492       0.272000
      5 C6           0.0480     0.1550     0.0870 cc         1 492      -0.151000
      6 C10         -0.4820     1.4210     0.0350 cd         1 492      -0.130000
      7 C9          -1.9010     1.4330     0.1250 cd         1 492      -0.134000
      8 C1           1.4600    -0.1120     0.0160 cc         1 492      -0.126000
      9 S2           2.7220     1.1110    -0.1460 ss         1 492       0.206000
     10 C3           3.9650    -0.1380    -0.1390 cc         1 492      -0.245000
     11 C4           3.4100    -1.3890    -0.0200 cd         1 492      -0.127000
     12 C5           1.9910    -1.3770     0.0690 cd         1 492      -0.133000
     13 HN18        -5.5720    -0.2670    -0.8150 hn         1 492       0.403000
     14 HN1A        -4.4830     0.8160    -1.3130 hn         1 492       0.403000
     15 H17         -4.4070     0.5470     1.0430 h1         1 492       0.041700
     16 H17A        -4.0180    -1.1790     0.8060 h1         1 492       0.041700
     17 H10          0.1100     2.3250    -0.0620 ha         1 492       0.134000
     18 H9          -2.4880     2.3470     0.1050 ha         1 492       0.130000
     19 H3           5.0070     0.1440    -0.2240 h4         1 492       0.149000
     20 H4           4.0000    -2.3010     0.0050 ha         1 492       0.134000
     21 H5           1.4000    -2.2820     0.1680 ha         1 492       0.137000
@<TRIPOS>BOND
     1     1     2 1   
     2     1    13 1   
     3     1    14 1   
     4     2     3 1   
     5     2    15 1   
     6     2    16 1   
     7     3     4 1   
     8     3     7 2   
     9     4     5 1   
    10     5     6 2   
    11     5     8 1   
    12     6     7 1   
    13     6    17 1   
    14     7    18 1   
    15     8     9 1   
    16     8    12 2   
    17     9    10 1   
    18    10    11 2   
    19    10    19 1   
    20    11    12 1   
    21    11    20 1   
    22    12    21 1   
@<TRIPOS>SUBSTRUCTURE
     1 492         1 TEMP              0 ****  ****    0 ROOT
