@<TRIPOS>MOLECULE
493
   78    81     1     0     0
SMALL
No Charge or Current Charge


@<TRIPOS>ATOM
      1 C1          -0.6190    -0.0040    -1.0480 ca         1 493      -0.106000
      2 C2          -1.2440     0.1150    -2.2970 ca         1 493      -0.281000
      3 C3          -0.5260    -0.1390    -3.4930 ca         1 493       0.215100
      4 C4           0.8350    -0.5100    -3.4130 ca         1 493      -0.130500
      5 C5           1.4510    -0.6280    -2.1470 ca         1 493      -0.076000
      6 C6           0.7280    -0.3840    -0.9630 ca         1 493      -0.226300
      7 C7          -2.5320     0.3470    -4.8700 c3         1 493       0.020600
      8 C8          -3.0130     0.4120    -6.3530 c          1 493       0.719000
      9 C9           1.3950    -0.5210     0.4070 c3         1 493       0.008900
     10 C10          2.0560    -1.9100     0.6640 c3         1 493       0.045700
     11 C11          2.4970    -2.1000     2.1500 c          1 493       0.574100
     12 N12          3.1630    -1.0260     2.7080 ns         1 493      -0.517900
     13 N13          1.2340    -3.0490     0.1800 ns         1 493      -0.461900
     14 C14         -0.0590    -3.3310     0.5670 c          1 493       0.632100
     15 C15         -0.6960    -4.5010    -0.1740 c3         1 493      -0.177100
     16 O16         -0.6530    -2.7120     1.4370 o          1 493      -0.639100
     17 O17          2.2750    -3.1140     2.8020 o          1 493      -0.607100
     18 C18          3.4840    -0.8910     4.1460 c3         1 493       0.047700
     19 C19          4.7400    -0.0130     4.3950 c3         1 493      -0.082400
     20 C20          4.7860     1.3580     3.6770 c3         1 493      -0.077400
     21 C21          3.6560     2.3380     4.0570 c3         1 493      -0.092400
     22 C22          2.2470     1.8110     3.7320 c3         1 493       0.102000
     23 N23          1.7150     0.8910     4.7620 n          1 493      -0.395800
     24 C24          2.2300    -0.4190     4.9490 c          1 493       0.570000
     25 C25          0.4350     1.2910     5.3910 c3         1 493       0.144300
     26 C26         -0.7350     1.1690     4.4200 ca         1 493      -0.118300
     27 O27          1.7000    -1.1850     5.7470 o          1 493      -0.585000
     28 O28         -1.1390    -0.0240    -4.7300 os         1 493      -0.229100
     29 C49         -1.3090     2.3150     3.8400 ca         1 493      -0.100000
     30 C50         -2.3490     2.1920     2.9030 ca         1 493      -0.096000
     31 C51         -2.8450     0.9210     2.5170 cp         1 493      -0.039000
     32 C52         -2.2610    -0.2210     3.1200 ca         1 493      -0.096000
     33 C53         -1.2210    -0.1000     4.0560 ca         1 493      -0.100000
     34 C58         -3.9370     0.7860     1.4990 cp         1 493      -0.031000
     35 C59         -3.9680    -0.3090     0.5970 ca         1 493      -0.097000
     36 C60         -4.9840    -0.4300    -0.3670 ca         1 493      -0.116000
     37 C61         -5.9960     0.5390    -0.4470 ca         1 493      -0.121000
     38 C62         -5.9900     1.6290     0.4370 ca         1 493      -0.116000
     39 C63         -4.9720     1.7520     1.3990 ca         1 493      -0.097000
     40 P71          1.8250    -0.8420    -4.9280 p5         1 493       1.172000
     41 O72          1.8470     0.3820    -5.7820 o          1 493      -0.925833
     42 O73          1.2050    -1.9640    -5.6910 o          1 493      -0.925833
     43 O74          3.2240    -1.2100    -4.5580 o          1 493      -0.925833
     44 O79         -4.1810     0.7200    -6.5560 o          1 493      -0.730500
     45 O80         -2.2310     0.1610    -7.2620 o          1 493      -0.730500
     46 H1          -1.1880     0.2000    -0.1450 ha         1 493       0.049000
     47 H2          -2.2890     0.4060    -2.3160 ha         1 493       0.080000
     48 H5           2.4990    -0.9110    -2.0850 ha         1 493       0.118000
     49 H71         -3.1670    -0.3800    -4.3450 h1         1 493      -0.012300
     50 H72A        -2.7020     1.3340    -4.4200 h1         1 493      -0.012300
     51 H91          2.1560     0.2620     0.5080 hc         1 493       0.026200
     52 H92          0.6630    -0.3290     1.2010 hc         1 493       0.026200
     53 H10          2.9880    -1.9290     0.0850 h1         1 493       0.082700
     54 H12          3.3620    -0.2460     2.0940 hn         1 493       0.333500
     55 H13          1.6190    -3.6430    -0.5450 hn         1 493       0.322500
     56 H151        -1.7180    -4.7090     0.1640 hc         1 493       0.051033
     57 H152        -0.6610    -4.3010    -1.2510 hc         1 493       0.051033
     58 H153        -0.0510    -5.3810    -0.0780 hc         1 493       0.051033
     59 H18          3.7210    -1.8910     4.5320 h1         1 493       0.072700
     60 H191         5.6200    -0.5850     4.0760 hc         1 493       0.043200
     61 H192         4.8560     0.1420     5.4750 hc         1 493       0.043200
     62 H201         4.7850     1.2070     2.5900 hc         1 493       0.046700
     63 H202         5.7460     1.8360     3.9110 hc         1 493       0.046700
     64 H211         3.8120     3.2700     3.5000 hc         1 493       0.038200
     65 H212         3.7200     2.5960     5.1220 hc         1 493       0.038200
     66 H221         2.2200     1.3440     2.7420 h1         1 493       0.066200
     67 H222         1.5820     2.6830     3.6720 h1         1 493       0.066200
     68 H251         0.5240     2.3310     5.7320 h1         1 493       0.049200
     69 H252         0.2350     0.6840     6.2830 h1         1 493       0.049200
     70 H49         -0.9390     3.3050     4.1020 ha         1 493       0.123500
     71 H50         -2.7580     3.0940     2.4530 ha         1 493       0.126500
     72 H52         -2.6160    -1.2150     2.8610 ha         1 493       0.126500
     73 H53         -0.7840    -0.9970     4.4890 ha         1 493       0.123500
     74 H59         -3.1860    -1.0630     0.6300 ha         1 493       0.124000
     75 H60         -4.9830    -1.2740    -1.0530 ha         1 493       0.112000
     76 H61         -6.7830     0.4450    -1.1920 ha         1 493       0.101000
     77 H62         -6.7760     2.3800     0.3790 ha         1 493       0.112000
     78 H63         -4.9930     2.5990     2.0800 ha         1 493       0.124000
@<TRIPOS>BOND
     1     1     2 ar  
     2     1     6 ar  
     3     1    46 1   
     4     2     3 ar  
     5     2    47 1   
     6     3     4 ar  
     7     3    28 1   
     8     4     5 ar  
     9     4    40 1   
    10     5     6 ar  
    11     5    48 1   
    12     6     9 1   
    13     7     8 1   
    14     7    28 1   
    15     7    49 1   
    16     7    50 1   
    17     8    44 1   
    18     8    45 1   
    19     9    10 1   
    20     9    51 1   
    21     9    52 1   
    22    10    11 1   
    23    10    13 1   
    24    10    53 1   
    25    11    12 1   
    26    11    17 2   
    27    12    18 1   
    28    12    54 1   
    29    13    14 1   
    30    13    55 1   
    31    14    15 1   
    32    14    16 2   
    33    15    56 1   
    34    15    57 1   
    35    15    58 1   
    36    18    19 1   
    37    18    24 1   
    38    18    59 1   
    39    19    20 1   
    40    19    60 1   
    41    19    61 1   
    42    20    21 1   
    43    20    62 1   
    44    20    63 1   
    45    21    22 1   
    46    21    64 1   
    47    21    65 1   
    48    22    23 1   
    49    22    66 1   
    50    22    67 1   
    51    23    24 1   
    52    23    25 1   
    53    24    27 2   
    54    25    26 1   
    55    25    68 1   
    56    25    69 1   
    57    26    29 ar  
    58    26    33 ar  
    59    29    30 ar  
    60    29    70 1   
    61    30    31 ar  
    62    30    71 1   
    63    31    32 ar  
    64    31    34 1   
    65    32    33 ar  
    66    32    72 1   
    67    33    73 1   
    68    34    35 ar  
    69    34    39 ar  
    70    35    36 ar  
    71    35    74 1   
    72    36    37 ar  
    73    36    75 1   
    74    37    38 ar  
    75    37    76 1   
    76    38    39 ar  
    77    38    77 1   
    78    39    78 1   
    79    40    41 1   
    80    40    42 1   
    81    40    43 1   
@<TRIPOS>SUBSTRUCTURE
     1 493         1 TEMP              0 ****  ****    0 ROOT
