@<TRIPOS>MOLECULE
493
   78    81     1     0     0
SMALL
abcg2


@<TRIPOS>ATOM
      1 C1          -0.6570    -0.6340    -1.5580 ca         1 493      -0.106000
      2 C2          -1.0480    -0.6520    -2.8940 ca         1 493      -0.281000
      3 C3          -0.0930    -0.5970    -3.9100 ca         1 493       0.215100
      4 C4           1.2770    -0.5170    -3.5920 ca         1 493      -0.130500
      5 C5           1.6130    -0.4930    -2.2460 ca         1 493      -0.076000
      6 C6           0.6790    -0.5530    -1.2100 ca         1 493      -0.226300
      7 C7          -1.7750    -0.6900    -5.5690 c3         1 493       0.020600
      8 C8          -1.9760    -0.6880    -7.0930 c          1 493       0.719000
      9 C9           1.1260    -0.5510     0.2240 c3         1 493       0.008900
     10 C10          1.8100    -1.8780     0.6210 c3         1 493       0.045700
     11 C11          2.1940    -1.8840     2.1030 c          1 493       0.574100
     12 N12          3.0920    -0.9420     2.4510 ns         1 493      -0.517900
     13 N13          1.0690    -3.0550     0.2630 ns         1 493      -0.461900
     14 C14         -0.2070    -3.3180     0.5970 c          1 493       0.632100
     15 C15         -0.7540    -4.6090     0.0360 c3         1 493      -0.177100
     16 O16         -0.8990    -2.5770     1.2790 o          1 493      -0.639100
     17 O17          1.7250    -2.6640     2.9120 o          1 493      -0.607100
     18 C18          3.5820    -0.8260     3.8070 c3         1 493       0.047700
     19 C19          4.7590     0.1470     3.8870 c3         1 493      -0.082400
     20 C20          4.5300     1.5280     3.2880 c3         1 493      -0.077400
     21 C21          3.3470     2.2890     3.8670 c3         1 493      -0.092400
     22 C22          1.9910     1.6350     3.6270 c3         1 493       0.102000
     23 N23          1.6650     0.5590     4.5590 n          1 493      -0.395800
     24 C24          2.4620    -0.5020     4.8040 c          1 493       0.570000
     25 C25          0.4950     0.7860     5.3910 c3         1 493       0.144300
     26 C26         -0.7540     0.9320     4.5580 ca         1 493      -0.118300
     27 O27          2.3280    -1.2180     5.7870 o          1 493      -0.585000
     28 O28         -0.4130    -0.6140    -5.2200 os         1 493      -0.229100
     29 C49         -1.6300     1.9900     4.7700 ca         1 493      -0.100000
     30 C50         -2.7750     2.1330     3.9990 ca         1 493      -0.096000
     31 C51         -3.0710     1.2250     2.9840 cp         1 493      -0.039000
     32 C52         -2.1920     0.1590     2.7800 ca         1 493      -0.096000
     33 C53         -1.0550     0.0140     3.5560 ca         1 493      -0.100000
     34 C58         -4.2700     1.3880     2.1380 cp         1 493      -0.031000
     35 C59         -4.2220     1.1020     0.7720 ca         1 493      -0.097000
     36 C60         -5.3450     1.2540    -0.0270 ca         1 493      -0.116000
     37 C61         -6.5410     1.6960     0.5250 ca         1 493      -0.121000
     38 C62         -6.6010     1.9850     1.8820 ca         1 493      -0.116000
     39 C63         -5.4770     1.8330     2.6800 ca         1 493      -0.097000
     40 P71          2.6350    -0.4510    -4.8730 p5         1 493       1.172000
     41 O72          2.3810     0.8250    -5.6740 o          1 493      -0.925833
     42 O73          2.5060    -1.7540    -5.6620 o          1 493      -0.925833
     43 O74          3.9170    -0.3850    -4.0280 o          1 493      -0.925833
     44 O79         -3.1740    -0.7880    -7.4320 o          1 493      -0.730500
     45 O80         -0.9850    -0.5870    -7.8280 o          1 493      -0.730500
     46 H1          -1.4160    -0.6910    -0.7860 ha         1 493       0.049000
     47 H2          -2.1060    -0.7130    -3.1140 ha         1 493       0.080000
     48 H5           2.6690    -0.4210    -2.0040 ha         1 493       0.118000
     49 H71         -2.2360    -1.5990    -5.1590 h1         1 493      -0.012300
     50 H72A        -2.3360     0.1560    -5.1490 h1         1 493      -0.012300
     51 H91          1.8530     0.2520     0.3760 hc         1 493       0.026200
     52 H92          0.2900    -0.3480     0.8910 hc         1 493       0.026200
     53 H10          2.7400    -1.9380     0.0490 h1         1 493       0.082700
     54 H12          3.5500    -0.4120     1.7270 hn         1 493       0.333500
     55 H13          1.5530    -3.7300    -0.3030 hn         1 493       0.322500
     56 H151        -1.1940    -5.1980     0.8400 hc         1 493       0.051033
     57 H152        -1.5510    -4.3810    -0.6720 hc         1 493       0.051033
     58 H153        -0.0100    -5.2180    -0.4740 hc         1 493       0.051033
     59 H18          3.9500    -1.8010     4.1360 h1         1 493       0.072700
     60 H191         5.6110    -0.3210     3.3870 hc         1 493       0.043200
     61 H192         5.0390     0.2410     4.9400 hc         1 493       0.043200
     62 H201         4.4120     1.4590     2.2010 hc         1 493       0.046700
     63 H202         5.4400     2.1140     3.4380 hc         1 493       0.046700
     64 H211         3.3180     3.2800     3.4090 hc         1 493       0.038200
     65 H212         3.4830     2.4490     4.9410 hc         1 493       0.038200
     66 H221         1.9010     1.3010     2.5920 h1         1 493       0.066200
     67 H222         1.2200     2.3920     3.7570 h1         1 493       0.066200
     68 H251         0.6370     1.6820     6.0030 h1         1 493       0.049200
     69 H252         0.3930    -0.0510     6.0800 h1         1 493       0.049200
     70 H49         -1.4110     2.7250     5.5360 ha         1 493       0.123500
     71 H50         -3.4260     2.9820     4.1700 ha         1 493       0.126500
     72 H52         -2.3970    -0.5810     2.0170 ha         1 493       0.126500
     73 H53         -0.3960    -0.8250     3.3680 ha         1 493       0.123500
     74 H59         -3.2910     0.7790     0.3230 ha         1 493       0.124000
     75 H60         -5.2840     1.0340    -1.0850 ha         1 493       0.112000
     76 H61         -7.4170     1.8140    -0.0980 ha         1 493       0.101000
     77 H62         -7.5290     2.3250     2.3230 ha         1 493       0.112000
     78 H63         -5.5460     2.0450     3.7400 ha         1 493       0.124000
@<TRIPOS>BOND
     1     1     2 ar  
     2     1     6 ar  
     3     1    46 1   
     4     2     3 ar  
     5     2    47 1   
     6     3     4 ar  
     7     3    28 1   
     8     4     5 ar  
     9     4    40 1   
    10     5     6 ar  
    11     5    48 1   
    12     6     9 1   
    13     7     8 1   
    14     7    28 1   
    15     7    49 1   
    16     7    50 1   
    17     8    44 1   
    18     8    45 1   
    19     9    10 1   
    20     9    51 1   
    21     9    52 1   
    22    10    11 1   
    23    10    13 1   
    24    10    53 1   
    25    11    12 1   
    26    11    17 2   
    27    12    18 1   
    28    12    54 1   
    29    13    14 1   
    30    13    55 1   
    31    14    15 1   
    32    14    16 2   
    33    15    56 1   
    34    15    57 1   
    35    15    58 1   
    36    18    19 1   
    37    18    24 1   
    38    18    59 1   
    39    19    20 1   
    40    19    60 1   
    41    19    61 1   
    42    20    21 1   
    43    20    62 1   
    44    20    63 1   
    45    21    22 1   
    46    21    64 1   
    47    21    65 1   
    48    22    23 1   
    49    22    66 1   
    50    22    67 1   
    51    23    24 1   
    52    23    25 1   
    53    24    27 2   
    54    25    26 1   
    55    25    68 1   
    56    25    69 1   
    57    26    29 ar  
    58    26    33 ar  
    59    29    30 ar  
    60    29    70 1   
    61    30    31 ar  
    62    30    71 1   
    63    31    32 ar  
    64    31    34 1   
    65    32    33 ar  
    66    32    72 1   
    67    33    73 1   
    68    34    35 ar  
    69    34    39 ar  
    70    35    36 ar  
    71    35    74 1   
    72    36    37 ar  
    73    36    75 1   
    74    37    38 ar  
    75    37    76 1   
    76    38    39 ar  
    77    38    77 1   
    78    39    78 1   
    79    40    41 1   
    80    40    42 1   
    81    40    43 1   
@<TRIPOS>SUBSTRUCTURE
     1 493         1 TEMP              0 ****  ****    0 ROOT
