@<TRIPOS>MOLECULE
494
   45    47     1     0     0
SMALL
No Charge or Current Charge


@<TRIPOS>ATOM
      1 C00          1.2120     3.5380     0.3670 ca         1 494      -0.188000
      2 C01          0.8520     4.6660    -0.3870 ca         1 494       0.153000
      3 C02          0.2060     4.5190    -1.6240 ca         1 494      -0.125000
      4 C03         -0.0870     3.2340    -2.1120 ca         1 494      -0.071000
      5 C04          0.2570     2.0980    -1.3590 ca         1 494       0.068100
      6 C05          0.9190     2.2420    -0.1140 ca         1 494       0.129100
      7 Cl7          1.2190     6.2750     0.2210 cl         1 494      -0.191000
      8 O0A         -0.0220     0.8560    -1.8900 os         1 494      -0.236200
      9 O0B          1.2680     1.1080     0.5990 os         1 494      -0.326100
     10 C0C         -0.7620    -0.1010    -1.2320 ca         1 494       0.148100
     11 C0D         -0.5930    -1.4430    -1.5970 ca         1 494      -0.124000
     12 C0E         -1.3430    -2.4400    -0.9580 ca         1 494       0.149000
     13 C0F         -2.2670    -2.1010     0.0430 ca         1 494      -0.097000
     14 C0G         -2.4540    -0.7530     0.4150 ca         1 494      -0.027800
     15 C0H         -1.6990     0.2440    -0.2360 ca         1 494      -0.153000
     16 Cl0         -1.1170    -4.1250    -1.4090 cl         1 494      -0.196000
     17 C0M         -3.4280    -0.3570     1.4740 ce         1 494      -0.100200
     18 C0O          2.1520     1.1490     1.7340 c3         1 494       0.140600
     19 C0P          2.3300    -0.2880     2.2760 c3         1 494       0.098000
     20 N0S          2.6060    -1.3130     1.2310 n          1 494      -0.305000
     21 C0V          1.6690    -2.3510     1.0160 c          1 494       0.625000
     22 N0W          1.9580    -3.2220     0.0120 ns         1 494      -0.469500
     23 C0X          3.0370    -3.2270    -0.8090 c          1 494       0.590200
     24 C0Y          3.9830    -2.1500    -0.5340 cc         1 494      -0.372200
     25 C0Z          3.7650    -1.2280     0.4630 cd         1 494      -0.000400
     26 O10          0.6540    -2.4930     1.6780 o          1 494      -0.549000
     27 O12          3.1830    -4.0620    -1.6830 o          1 494      -0.524000
     28 C15         -4.2060    -1.1450     2.2710 cf         1 494      -0.107700
     29 C17         -5.1030    -0.6380     3.2570 ch         1 494       0.273700
     30 N19         -5.8270    -0.1850     4.0520 n1         1 494      -0.453000
     31 H1           1.7130     3.6910     1.3170 ha         1 494       0.134000
     32 H2          -0.0640     5.3980    -2.2030 ha         1 494       0.140000
     33 H3          -0.5810     3.1170    -3.0730 ha         1 494       0.140000
     34 H4           0.1210    -1.7090    -2.3700 ha         1 494       0.148000
     35 H5          -2.8310    -2.8960     0.5210 ha         1 494       0.134000
     36 H6          -1.8420     1.2870     0.0340 ha         1 494       0.127000
     37 H7          -3.5080     0.7230     1.6150 ha         1 494       0.183000
     38 H8           3.1300     1.5490     1.4380 h1         1 494       0.047200
     39 H9           1.7450     1.7820     2.5330 h1         1 494       0.047200
     40 H10          3.1590    -0.2900     2.9960 h1         1 494       0.084200
     41 H11          1.4260    -0.5470     2.8410 h1         1 494       0.084200
     42 H12          1.2840    -3.9540    -0.1400 hn         1 494       0.345500
     43 H13          4.8650    -2.1250    -1.1650 ha         1 494       0.224000
     44 H14          4.4310    -0.4050     0.7140 h4         1 494       0.200000
     45 H15         -4.1670    -2.2290     2.1820 ha         1 494       0.205000
@<TRIPOS>BOND
     1     1     2 ar  
     2     1     6 ar  
     3     1    31 1   
     4     2     3 ar  
     5     2     7 1   
     6     3     4 ar  
     7     3    32 1   
     8     4     5 ar  
     9     4    33 1   
    10     5     6 ar  
    11     5     8 1   
    12     6     9 1   
    13     8    10 1   
    14     9    18 1   
    15    10    11 ar  
    16    10    15 ar  
    17    11    12 ar  
    18    11    34 1   
    19    12    13 ar  
    20    12    16 1   
    21    13    14 ar  
    22    13    35 1   
    23    14    15 ar  
    24    14    17 1   
    25    15    36 1   
    26    17    28 2   
    27    17    37 1   
    28    18    19 1   
    29    18    38 1   
    30    18    39 1   
    31    19    20 1   
    32    19    40 1   
    33    19    41 1   
    34    20    21 1   
    35    20    25 1   
    36    21    22 1   
    37    21    26 2   
    38    22    23 1   
    39    22    42 1   
    40    23    24 1   
    41    23    27 2   
    42    24    25 2   
    43    24    43 1   
    44    25    44 1   
    45    28    29 1   
    46    28    45 1   
    47    29    30 3   
@<TRIPOS>SUBSTRUCTURE
     1 494         1 TEMP              0 ****  ****    0 ROOT
