@<TRIPOS>MOLECULE
494
   45    47     1     0     0
SMALL
abcg2


@<TRIPOS>ATOM
      1 C00          1.2640     3.4320     0.3550 ca         1 494      -0.188000
      2 C01          0.8450     4.5160    -0.4050 ca         1 494       0.153000
      3 C02          0.1300     4.3580    -1.5770 ca         1 494      -0.125000
      4 C03         -0.1700     3.0690    -1.9980 ca         1 494      -0.071000
      5 C04          0.2450     1.9760    -1.2670 ca         1 494       0.068100
      6 C05          0.9600     2.1450    -0.0720 ca         1 494       0.129100
      7 CL7          1.2410     6.1110     0.1430 cl         1 494      -0.191000
      8 O0A          0.0330     0.7200    -1.7650 os         1 494      -0.236200
      9 O0B          1.2890     1.0250     0.5820 os         1 494      -0.326100
     10 C0C         -0.7720    -0.1530    -1.1080 ca         1 494       0.148100
     11 C0D         -0.6620    -1.4810    -1.4950 ca         1 494      -0.124000
     12 C0E         -1.4710    -2.4170    -0.8750 ca         1 494       0.149000
     13 C0F         -2.3840    -2.0740     0.1000 ca         1 494      -0.097000
     14 C0G         -2.4910    -0.7340     0.4720 ca         1 494      -0.027800
     15 C0H         -1.6830     0.2270    -0.1340 ca         1 494      -0.153000
     16 CL0         -1.2990    -4.0820    -1.3230 cl         1 494      -0.196000
     17 C0M         -3.4300    -0.2800     1.4920 ce         1 494      -0.100200
     18 C0O          2.1950     1.0990     1.6660 c3         1 494       0.140600
     19 C0P          2.3440    -0.2960     2.2380 c3         1 494       0.098000
     20 N0S          2.6420    -1.2880     1.2130 n          1 494      -0.305000
     21 C0V          1.7040    -2.2560     0.9140 c          1 494       0.625000
     22 N0W          2.0440    -3.0680    -0.1400 ns         1 494      -0.469500
     23 C0X          3.2000    -3.0440    -0.9040 c          1 494       0.590200
     24 C0Y          4.1350    -2.0260    -0.4950 cc         1 494      -0.372200
     25 C0Z          3.8140    -1.2090     0.5230 cd         1 494      -0.000400
     26 O10          0.6690    -2.4000     1.5260 o          1 494      -0.549000
     27 O12          3.3540    -3.8350    -1.8170 o          1 494      -0.524000
     28 C15         -4.3090    -1.0490     2.1500 cf         1 494      -0.107700
     29 C17         -5.1750    -0.4950     3.1280 ch         1 494       0.273700
     30 N19         -5.8870    -0.0620     3.9260 n1         1 494      -0.453000
     31 H1           1.8240     3.6020     1.2630 ha         1 494       0.134000
     32 H2          -0.1880     5.2120    -2.1570 ha         1 494       0.140000
     33 H3          -0.7200     2.9130    -2.9180 ha         1 494       0.140000
     34 H4           0.0470    -1.7680    -2.2600 ha         1 494       0.148000
     35 H5          -2.9910    -2.8380     0.5660 ha         1 494       0.134000
     36 H6          -1.7830     1.2640     0.1600 ha         1 494       0.127000
     37 H7          -3.3970     0.7790     1.7220 ha         1 494       0.183000
     38 H8           3.1550     1.5010     1.3250 h1         1 494       0.047200
     39 H9           1.8250     1.7500     2.4640 h1         1 494       0.047200
     40 H10          3.1410    -0.2870     2.9820 h1         1 494       0.084200
     41 H11          1.4290    -0.5990     2.7390 h1         1 494       0.084200
     42 H12          1.3600    -3.7790    -0.3670 hn         1 494       0.345500
     43 H13          5.0820    -1.9270    -1.0030 ha         1 494       0.224000
     44 H14          4.4970    -0.4380     0.8540 h4         1 494       0.200000
     45 H15         -4.4130    -2.1130     1.9790 ha         1 494       0.205000
@<TRIPOS>BOND
     1     1     2 ar  
     2     1     6 ar  
     3     1    31 1   
     4     2     3 ar  
     5     2     7 1   
     6     3     4 ar  
     7     3    32 1   
     8     4     5 ar  
     9     4    33 1   
    10     5     6 ar  
    11     5     8 1   
    12     6     9 1   
    13     8    10 1   
    14     9    18 1   
    15    10    11 ar  
    16    10    15 ar  
    17    11    12 ar  
    18    11    34 1   
    19    12    13 ar  
    20    12    16 1   
    21    13    14 ar  
    22    13    35 1   
    23    14    15 ar  
    24    14    17 1   
    25    15    36 1   
    26    17    28 2   
    27    17    37 1   
    28    18    19 1   
    29    18    38 1   
    30    18    39 1   
    31    19    20 1   
    32    19    40 1   
    33    19    41 1   
    34    20    21 1   
    35    20    25 1   
    36    21    22 1   
    37    21    26 2   
    38    22    23 1   
    39    22    42 1   
    40    23    24 1   
    41    23    27 2   
    42    24    25 2   
    43    24    43 1   
    44    25    44 1   
    45    28    29 1   
    46    28    45 1   
    47    29    30 3   
@<TRIPOS>SUBSTRUCTURE
     1 494         1 TEMP              0 ****  ****    0 ROOT
