@<TRIPOS>MOLECULE
495
   17    18     1     0     0
SMALL
No Charge or Current Charge


@<TRIPOS>ATOM
      1 Cl           2.9110     0.2520    -0.0190 cl         1 495      -0.086300
      2 C8           1.3020    -0.4150    -0.0140 cc         1 495       0.423900
      3 N2           1.1770    -1.7440    -0.0140 nd         1 495      -0.414300
      4 N1          -0.1070    -2.2590    -0.0100 ns         1 495      -0.235900
      5 C7          -1.3100    -1.5760    -0.0050 c          1 495       0.556600
      6 O           -2.3870    -2.1570    -0.0020 o          1 495      -0.532000
      7 C6          -1.1710    -0.0780    -0.0060 ca         1 495      -0.144600
      8 C5           0.1280     0.4870    -0.0100 ca         1 495      -0.116900
      9 C1          -2.3100     0.7560    -0.0020 ca         1 495      -0.051000
     10 C2          -2.1610     2.1510    -0.0020 ca         1 495      -0.108000
     11 C3          -0.8790     2.7200    -0.0060 ca         1 495      -0.083000
     12 C4           0.2600     1.8960    -0.0100 ca         1 495      -0.089000
     13 H1          -0.2090    -3.2700    -0.0090 hn         1 495       0.360500
     14 H2          -3.3090     0.3230     0.0020 ha         1 495       0.143000
     15 H3          -3.0410     2.7920     0.0010 ha         1 495       0.124000
     16 H4          -0.7650     3.8020    -0.0060 ha         1 495       0.122000
     17 H5           1.2390     2.3700    -0.0130 ha         1 495       0.133000
@<TRIPOS>BOND
     1     1     2 1   
     2     2     3 2   
     3     2     8 1   
     4     3     4 1   
     5     4     5 1   
     6     4    13 1   
     7     5     6 2   
     8     5     7 1   
     9     7     8 ar  
    10     7     9 ar  
    11     8    12 ar  
    12     9    10 ar  
    13     9    14 1   
    14    10    11 ar  
    15    10    15 1   
    16    11    12 ar  
    17    11    16 1   
    18    12    17 1   
@<TRIPOS>SUBSTRUCTURE
     1 495         1 TEMP              0 ****  ****    0 ROOT
