@<TRIPOS>MOLECULE
495
   17    18     1     0     0
SMALL
bcc


@<TRIPOS>ATOM
      1 CL           2.8460     0.1890    -0.0170 cl         1 495      -0.086300
      2 C8           1.2320    -0.4200    -0.0130 cc         1 495       0.423900
      3 N2           1.1110    -1.6880    -0.0150 nd         1 495      -0.414300
      4 N1          -0.1180    -2.2040    -0.0110 ns         1 495      -0.302900
      5 C7          -1.3050    -1.5280    -0.0050 c          1 495       0.699100
      6 O           -2.3720    -2.1190     0.0000 o          1 495      -0.607500
      7 C6          -1.1550    -0.0700    -0.0050 ca         1 495      -0.144600
      8 C5           0.1250     0.5030    -0.0090 ca         1 495      -0.116900
      9 C1          -2.2870     0.7440    -0.0010 ca         1 495      -0.069000
     10 C2          -2.1430     2.1150    -0.0020 ca         1 495      -0.126000
     11 C3          -0.8690     2.6880    -0.0070 ca         1 495      -0.101000
     12 C4           0.2590     1.8940    -0.0100 ca         1 495      -0.107000
     13 H1          -0.1420    -3.2150    -0.0130 hn         1 495       0.360500
     14 H2          -3.2700     0.2950     0.0030 ha         1 495       0.161000
     15 H3          -3.0170     2.7520     0.0000 ha         1 495       0.142000
     16 H4          -0.7640     3.7640    -0.0090 ha         1 495       0.140000
     17 H5           1.2380     2.3510    -0.0130 ha         1 495       0.151000
@<TRIPOS>BOND
     1     1     2 1   
     2     2     3 2   
     3     2     8 1   
     4     3     4 1   
     5     4     5 1   
     6     4    13 1   
     7     5     6 2   
     8     5     7 1   
     9     7     8 ar  
    10     7     9 ar  
    11     8    12 ar  
    12     9    10 ar  
    13     9    14 1   
    14    10    11 ar  
    15    10    15 1   
    16    11    12 ar  
    17    11    16 1   
    18    12    17 1   
@<TRIPOS>SUBSTRUCTURE
     1 495         1 TEMP              0 ****  ****    0 ROOT
