@<TRIPOS>MOLECULE
496
   44    46     1     0     0
SMALL
abcg2


@<TRIPOS>ATOM
      1 O1           0.5120     3.7400    15.6770 o          1 496      -0.669100
      2 C2          -0.5580     4.2300    16.0880 c          1 496       0.648700
      3 N3          -0.9490     5.4430    15.6530 nt         1 496      -0.590000
      4 C4          -1.4250     3.5030    17.0380 cc         1 496      -0.252600
      5 C5          -2.5580     4.0020    17.7890 cc         1 496      -0.052300
      6 C6          -3.0610     5.4230    17.8390 c6         1 496      -0.017100
      7 C10         -4.0240     5.6530    19.0090 c6         1 496      -0.072400
      8 C9          -5.0490     4.5270    19.1230 c6         1 496      -0.071400
      9 C8          -4.3520     3.1980    19.4240 c6         1 496       0.000900
     10 C7          -3.1600     3.0280    18.5300 cd         1 496      -0.242300
     11 S11         -2.3790     1.4860    18.3610 ss         1 496       0.294000
     12 C12         -1.2120     2.1530    17.2790 cd         1 496      -0.003400
     13 N13         -0.1950     1.4090    16.7130 ns         1 496      -0.384100
     14 C14          0.0080     0.0810    16.8730 c          1 496       0.583100
     15 O15         -0.6760    -0.6310    17.5950 o          1 496      -0.563100
     16 C16          1.1540    -0.4630    16.0230 c3         1 496       0.012600
     17 N17          1.6570    -1.7140    16.5340 na         1 496       0.140800
     18 C24          1.2870    -2.9620    16.1690 cc         1 496      -0.132000
     19 C25          1.9660    -3.8480    16.9800 cd         1 496      -0.151300
     20 C26          1.8990    -5.3360    16.9330 c3         1 496       0.239900
     21 O29          3.1650    -5.8420    16.4810 oh         1 496      -0.660000
     22 C19          2.7290    -3.0040    17.8200 cd         1 496       0.173300
     23 N18          2.5360    -1.7180    17.5450 nc         1 496      -0.464800
     24 C20          3.7240    -3.3860    18.8640 c3         1 496       0.284700
     25 F21          4.9600    -3.5930    18.3440 f          1 496      -0.106333
     26 F22          3.3780    -4.5310    19.4910 f          1 496      -0.106333
     27 F23          3.8640    -2.4380    19.8110 f          1 496      -0.106333
     28 H1          -0.3760     5.9060    14.9660 hn         1 496       0.319500
     29 H2          -1.8500     5.8340    15.8610 hn         1 496       0.319500
     30 H3          -2.2200     6.1160    17.9250 hc         1 496       0.046700
     31 H4          -3.5780     5.6650    16.9020 hc         1 496       0.046700
     32 H5          -3.4510     5.7120    19.9400 hc         1 496       0.046200
     33 H6          -4.5220     6.6150    18.8790 hc         1 496       0.046200
     34 H7          -5.6030     4.4440    18.1830 hc         1 496       0.044700
     35 H8          -5.7740     4.7470    19.9090 hc         1 496       0.044700
     36 H9          -5.0460     2.3640    19.2940 hc         1 496       0.052700
     37 H10         -4.0340     3.1770    20.4720 hc         1 496       0.052700
     38 H11          0.4280     1.9830    16.1390 hn         1 496       0.380500
     39 H12          0.7820    -0.6290    15.0110 h1         1 496       0.094700
     40 H13          1.9720     0.2530    15.9720 h1         1 496       0.094700
     41 H14          0.5790    -3.1340    15.3750 h4         1 496       0.162000
     42 H15          1.6690    -5.7390    17.9220 h1         1 496       0.036200
     43 H16          1.1000    -5.6350    16.2490 h1         1 496       0.036200
     44 H17          3.1550    -6.8020    16.5860 ho         1 496       0.443000
@<TRIPOS>BOND
     1     1     2 2   
     2     2     3 1   
     3     2     4 1   
     4     3    28 1   
     5     3    29 1   
     6     4     5 1   
     7     4    12 2   
     8     5     6 1   
     9     5    10 2   
    10     6     7 1   
    11     6    30 1   
    12     6    31 1   
    13     7     8 1   
    14     7    32 1   
    15     7    33 1   
    16     8     9 1   
    17     8    34 1   
    18     8    35 1   
    19     9    10 1   
    20     9    36 1   
    21     9    37 1   
    22    10    11 1   
    23    11    12 1   
    24    12    13 1   
    25    13    14 1   
    26    13    38 1   
    27    14    15 2   
    28    14    16 1   
    29    16    17 1   
    30    16    39 1   
    31    16    40 1   
    32    17    18 1   
    33    17    23 1   
    34    18    19 2   
    35    18    41 1   
    36    19    20 1   
    37    19    22 1   
    38    20    21 1   
    39    20    42 1   
    40    20    43 1   
    41    21    44 1   
    42    22    23 2   
    43    22    24 1   
    44    24    25 1   
    45    24    26 1   
    46    24    27 1   
@<TRIPOS>SUBSTRUCTURE
     1 496         1 TEMP              0 ****  ****    0 ROOT
