@<TRIPOS>MOLECULE
496
   44    46     1     0     0
SMALL
No Charge or Current Charge


@<TRIPOS>ATOM
      1 O1           0.4150     3.6800    15.6850 o          1 496      -0.669100
      2 C2          -0.5810     4.1850    16.1790 c          1 496       0.648700
      3 N3          -0.8660     5.4500    15.8330 nt         1 496      -0.590000
      4 C4          -1.5080     3.4680    17.1250 cc         1 496      -0.252600
      5 C5          -2.6630     4.0150    17.8040 cc         1 496      -0.052300
      6 C6          -3.1330     5.4620    17.7140 c6         1 496      -0.017100
      7 C10         -4.2150     5.8010    18.7740 c6         1 496      -0.072400
      8 C9          -5.2650     4.6760    18.8960 c6         1 496      -0.071400
      9 C8          -4.5950     3.3640    19.3610 c6         1 496       0.000900
     10 C7          -3.3380     3.0850    18.5640 cd         1 496      -0.242300
     11 S11         -2.5720     1.4970    18.5360 ss         1 496       0.294000
     12 C12         -1.3260     2.1290    17.4380 cd         1 496      -0.003400
     13 N13         -0.2760     1.3810    16.9160 ns         1 496      -0.384100
     14 C14          0.0450     0.0490    17.1120 c          1 496       0.583100
     15 O15         -0.6170    -0.6970    17.8230 o          1 496      -0.563100
     16 C16          1.2960    -0.4100    16.3530 c3         1 496       0.012600
     17 N17          1.7960    -1.7270    16.7720 na         1 496       0.140800
     18 C24          1.3000    -2.9620    16.3740 cc         1 496      -0.132000
     19 C25          2.1000    -3.8690    17.0120 cd         1 496      -0.151300
     20 C26          1.9920    -5.3700    16.9320 c3         1 496       0.239900
     21 O29          2.6820    -5.8580    15.7780 oh         1 496      -0.660000
     22 C19          3.0480    -3.1200    17.7600 cd         1 496       0.173300
     23 N18          2.8760    -1.8130    17.6210 nc         1 496      -0.464800
     24 C20          4.1550    -3.6880    18.6430 c3         1 496       0.284700
     25 F21          4.9520    -4.5440    17.9630 f          1 496      -0.106333
     26 F22          3.6500    -4.3740    19.6950 f          1 496      -0.106333
     27 F23          4.9650    -2.7310    19.1570 f          1 496      -0.106333
     28 H1          -0.2530     5.9300    15.1930 hn         1 496       0.319500
     29 H2          -1.6920     5.8970    16.1900 hn         1 496       0.319500
     30 H3          -2.3000     6.1610    17.8670 hc         1 496       0.046700
     31 H4          -3.5460     5.6600    16.7160 hc         1 496       0.046700
     32 H5          -3.7350     5.9560    19.7510 hc         1 496       0.046200
     33 H6          -4.7050     6.7490    18.5150 hc         1 496       0.046200
     34 H7          -5.7550     4.5200    17.9240 hc         1 496       0.044700
     35 H8          -6.0540     4.9650    19.6040 hc         1 496       0.044700
     36 H9          -5.3080     2.5330    19.2690 hc         1 496       0.052700
     37 H10         -4.3460     3.4400    20.4280 hc         1 496       0.052700
     38 H11          0.3610     1.8790    16.2970 hn         1 496       0.380500
     39 H12          1.0540    -0.4390    15.2860 h1         1 496       0.094700
     40 H13          2.0830     0.3370    16.5060 h1         1 496       0.094700
     41 H14          0.4570    -3.0820    15.7050 h4         1 496       0.162000
     42 H15          2.4060    -5.8180    17.8450 h1         1 496       0.036200
     43 H16          0.9290    -5.6450    16.8850 h1         1 496       0.036200
     44 H17          2.5600    -6.8330    15.7690 ho         1 496       0.443000
@<TRIPOS>BOND
     1     1     2 2   
     2     2     3 1   
     3     2     4 1   
     4     3    28 1   
     5     3    29 1   
     6     4     5 1   
     7     4    12 2   
     8     5     6 1   
     9     5    10 2   
    10     6     7 1   
    11     6    30 1   
    12     6    31 1   
    13     7     8 1   
    14     7    32 1   
    15     7    33 1   
    16     8     9 1   
    17     8    34 1   
    18     8    35 1   
    19     9    10 1   
    20     9    36 1   
    21     9    37 1   
    22    10    11 1   
    23    11    12 1   
    24    12    13 1   
    25    13    14 1   
    26    13    38 1   
    27    14    15 2   
    28    14    16 1   
    29    16    17 1   
    30    16    39 1   
    31    16    40 1   
    32    17    18 1   
    33    17    23 1   
    34    18    19 2   
    35    18    41 1   
    36    19    20 1   
    37    19    22 1   
    38    20    21 1   
    39    20    42 1   
    40    20    43 1   
    41    21    44 1   
    42    22    23 2   
    43    22    24 1   
    44    24    25 1   
    45    24    26 1   
    46    24    27 1   
@<TRIPOS>SUBSTRUCTURE
     1 496         1 TEMP              0 ****  ****    0 ROOT
