@<TRIPOS>MOLECULE
497
   52    55     1     0     0
SMALL
abcg2


@<TRIPOS>ATOM
      1 C47          3.3350     1.3780     6.0920 c3         1 497      -0.091100
      2 C45          2.1120     1.1930     5.2030 c3         1 497      -0.074400
      3 C39          1.2430    -0.0060     5.6010 c6         1 497      -0.013400
      4 C38          0.7780     0.1320     7.0500 c6         1 497       0.158800
      5 N37         -0.2880    -0.8060     7.3340 n7         1 497      -0.852400
      6 C36         -1.4940    -0.4150     6.6360 c6         1 497       0.204100
      7 C26         -1.2330    -0.3680     5.1560 ca         1 497      -0.093300
      8 C27          0.0620    -0.1920     4.6650 ca         1 497      -0.030300
      9 C28          0.2610    -0.2060     3.2870 ca         1 497      -0.162000
     10 C22         -0.7930    -0.3590     2.3920 ca         1 497      -0.026000
     11 N21         -0.4770    -0.4010     1.0250 ns         1 497      -0.146000
     12 C20         -1.2720    -0.0410    -0.0140 c          1 497       0.619700
     13 O23         -2.4020     0.3950     0.1190 o          1 497      -0.581100
     14 C11         -0.6560    -0.2000    -1.3670 ca         1 497      -0.152600
     15 C12          0.3790    -1.1310    -1.6290 ca         1 497      -0.097000
     16 C13          0.9000    -1.2570    -2.8850 ca         1 497      -0.094000
     17 C4           0.4230    -0.4580    -3.9510 ca         1 497      -0.032000
     18 C5           0.9490    -0.5640    -5.2550 ca         1 497      -0.051000
     19 C6           0.4620     0.2080    -6.2790 ca         1 497      -0.135900
     20 C1          -0.5750     1.1360    -6.0160 ca         1 497      -0.096000
     21 C2          -1.0970     1.2640    -4.7600 ca         1 497      -0.096000
     22 C3          -0.6180     0.4690    -3.6940 ca         1 497      -0.042000
     23 C10         -1.1470     0.5710    -2.3910 ca         1 497      -0.036000
     24 C17          1.0420     0.0620    -7.6450 ce         1 497       0.659800
     25 N18          0.2180     0.4360    -8.6670 nv         1 497      -1.077200
     26 N19          2.2470    -0.3460    -7.7560 n2         1 497      -0.828100
     27 C24         -2.0870    -0.5130     2.8860 ca         1 497      -0.118000
     28 C25         -2.2830    -0.5180     4.2550 ca         1 497      -0.087000
     29 H471         3.9620     2.1880     5.7190 hc         1 497       0.032700
     30 H472         3.0670     1.6220     7.1210 hc         1 497       0.032700
     31 H473         3.9440     0.4720     6.1130 hc         1 497       0.032700
     32 H451         1.4980     2.0990     5.2210 hc         1 497       0.042200
     33 H452         2.4520     1.0800     4.1720 hc         1 497       0.042200
     34 H39          1.8630    -0.9090     5.5300 hc         1 497       0.065700
     35 H381         1.6110    -0.0730     7.7230 h1         1 497       0.032700
     36 H382         0.4710     1.1770     7.2310 h1         1 497       0.032700
     37 H37         -0.4690    -0.8210     8.3280 hn         1 497       0.412000
     38 H361        -2.2860    -1.1370     6.8450 h1         1 497       0.038700
     39 H362        -1.8710     0.5680     6.9660 h1         1 497       0.038700
     40 H28          1.2640    -0.0950     2.8920 ha         1 497       0.108000
     41 H21          0.4940    -0.5810     0.8210 hn         1 497       0.154000
     42 H12          0.7510    -1.7790    -0.8460 ha         1 497       0.115000
     43 H13          1.6820    -1.9800    -3.0750 ha         1 497       0.121000
     44 H5           1.7440    -1.2740    -5.4470 ha         1 497       0.139000
     45 H1          -0.9490     1.7720    -6.8080 ha         1 497       0.121000
     46 H2          -1.8840     1.9840    -4.5710 ha         1 497       0.121000
     47 H10         -1.9470     1.2770    -2.2070 ha         1 497       0.138000
     48 H181         0.5220     0.2290    -9.6050 hn         1 497       0.462500
     49 H182        -0.7770     0.3560    -8.5380 hn         1 497       0.462500
     50 H19          2.5140    -0.4420    -8.7320 hn         1 497       0.372400
     51 H24         -2.9290    -0.6530     2.2260 ha         1 497       0.141000
     52 H25         -3.2880    -0.6640     4.6350 ha         1 497       0.112000
@<TRIPOS>BOND
     1     1     2 1   
     2     1    29 1   
     3     1    30 1   
     4     1    31 1   
     5     2     3 1   
     6     2    32 1   
     7     2    33 1   
     8     3     4 1   
     9     3     8 1   
    10     3    34 1   
    11     4     5 1   
    12     4    35 1   
    13     4    36 1   
    14     5     6 1   
    15     5    37 1   
    16     6     7 1   
    17     6    38 1   
    18     6    39 1   
    19     7     8 ar  
    20     7    28 ar  
    21     8     9 ar  
    22     9    10 ar  
    23     9    40 1   
    24    10    11 1   
    25    10    27 ar  
    26    11    12 1   
    27    11    41 1   
    28    12    13 2   
    29    12    14 1   
    30    14    15 ar  
    31    14    23 ar  
    32    15    16 ar  
    33    15    42 1   
    34    16    17 ar  
    35    16    43 1   
    36    17    18 ar  
    37    17    22 ar  
    38    18    19 ar  
    39    18    44 1   
    40    19    20 ar  
    41    19    24 1   
    42    20    21 ar  
    43    20    45 1   
    44    21    22 ar  
    45    21    46 1   
    46    22    23 ar  
    47    23    47 1   
    48    24    25 1   
    49    24    26 2   
    50    25    48 1   
    51    25    49 1   
    52    26    50 1   
    53    27    28 ar  
    54    27    51 1   
    55    28    52 1   
@<TRIPOS>SUBSTRUCTURE
     1 497         1 TEMP              0 ****  ****    0 ROOT
