@<TRIPOS>MOLECULE
497
   52    55     1     0     0
SMALL
No Charge or Current Charge


@<TRIPOS>ATOM
      1 C47          3.6460     0.5660     6.1560 c3         1 497      -0.091100
      2 C45          2.3660     0.7120     5.3040 c3         1 497      -0.074400
      3 C39          1.2080    -0.2800     5.6610 c6         1 497      -0.013400
      4 C38          0.8180    -0.1520     7.1640 c6         1 497       0.158800
      5 N37         -0.4700    -0.8060     7.4620 n7         1 497      -0.852400
      6 C36         -1.5810    -0.1480     6.7460 c6         1 497       0.204100
      7 C26         -1.3240    -0.0790     5.2380 ca         1 497      -0.093300
      8 C27         -0.0100    -0.1340     4.7140 ca         1 497      -0.030300
      9 C28          0.1650    -0.1180     3.3120 ca         1 497      -0.162000
     10 C22         -0.9300    -0.0010     2.4360 ca         1 497      -0.026000
     11 N21         -0.6490     0.0160     1.0400 ns         1 497      -0.146000
     12 C20         -1.4590     0.1340    -0.0840 c          1 497       0.619700
     13 O23         -2.6780     0.2590    -0.0260 o          1 497      -0.581100
     14 C11         -0.7390     0.1010    -1.4210 ca         1 497      -0.152600
     15 C12          0.6690    -0.0410    -1.5210 ca         1 497      -0.097000
     16 C13          1.2980    -0.0670    -2.7770 ca         1 497      -0.094000
     17 C4           0.5410     0.0470    -3.9560 ca         1 497      -0.032000
     18 C5           1.1730     0.0210    -5.2130 ca         1 497      -0.051000
     19 C6           0.4210     0.1210    -6.4080 ca         1 497      -0.135900
     20 C1          -0.9820     0.2840    -6.3060 ca         1 497      -0.096000
     21 C2          -1.6140     0.3110    -5.0510 ca         1 497      -0.096000
     22 C3          -0.8570     0.1890    -3.8730 ca         1 497      -0.042000
     23 C10         -1.4890     0.2160    -2.6150 ca         1 497      -0.036000
     24 C17          1.1170     0.1210    -7.7380 ce         1 497       0.659800
     25 N18          0.4000    -0.1990    -8.8370 nv         1 497      -1.077200
     26 N19          2.3640     0.3150    -7.8730 n2         1 497      -0.828100
     27 C24         -2.2290     0.0850     2.9750 ca         1 497      -0.118000
     28 C25         -2.4210     0.0390     4.3650 ca         1 497      -0.087000
     29 H471         4.4290     1.2360     5.7820 hc         1 497       0.032700
     30 H472         3.4570     0.8230     7.2050 hc         1 497       0.032700
     31 H473         4.0260    -0.4620     6.1120 hc         1 497       0.032700
     32 H451         2.0050     1.7440     5.3910 hc         1 497       0.042200
     33 H452         2.6680     0.5850     4.2600 hc         1 497       0.042200
     34 H39          1.6110    -1.2910     5.5110 hc         1 497       0.065700
     35 H381         1.6050    -0.6010     7.7870 h1         1 497       0.032700
     36 H382         0.7490     0.9120     7.4370 h1         1 497       0.032700
     37 H37         -0.6520    -0.7410     8.4710 hn         1 497       0.412000
     38 H361        -2.5140    -0.7000     6.9380 h1         1 497       0.038700
     39 H362        -1.7160     0.8740     7.1310 h1         1 497       0.038700
     40 H28          1.1610    -0.2080     2.8900 ha         1 497       0.108000
     41 H21          0.3350    -0.0760     0.8280 hn         1 497       0.154000
     42 H12          1.2940    -0.1330    -0.6370 ha         1 497       0.115000
     43 H13          2.3790    -0.1770    -2.8310 ha         1 497       0.121000
     44 H5           2.2550    -0.0870    -5.2610 ha         1 497       0.139000
     45 H1          -1.5940     0.4030    -7.1970 ha         1 497       0.121000
     46 H2          -2.6940     0.4330    -4.9980 ha         1 497       0.121000
     47 H10         -2.5710     0.3280    -2.5690 ha         1 497       0.138000
     48 H181         0.9240    -0.6100    -9.6000 hn         1 497       0.462500
     49 H182        -0.5000    -0.6290    -8.6550 hn         1 497       0.462500
     50 H19          2.5530     0.4800    -8.8680 hn         1 497       0.372400
     51 H24         -3.1050     0.1740     2.3410 ha         1 497       0.141000
     52 H25         -3.4310     0.0920     4.7660 ha         1 497       0.112000
@<TRIPOS>BOND
     1     1     2 1   
     2     1    29 1   
     3     1    30 1   
     4     1    31 1   
     5     2     3 1   
     6     2    32 1   
     7     2    33 1   
     8     3     4 1   
     9     3     8 1   
    10     3    34 1   
    11     4     5 1   
    12     4    35 1   
    13     4    36 1   
    14     5     6 1   
    15     5    37 1   
    16     6     7 1   
    17     6    38 1   
    18     6    39 1   
    19     7     8 ar  
    20     7    28 ar  
    21     8     9 ar  
    22     9    10 ar  
    23     9    40 1   
    24    10    11 1   
    25    10    27 ar  
    26    11    12 1   
    27    11    41 1   
    28    12    13 2   
    29    12    14 1   
    30    14    15 ar  
    31    14    23 ar  
    32    15    16 ar  
    33    15    42 1   
    34    16    17 ar  
    35    16    43 1   
    36    17    18 ar  
    37    17    22 ar  
    38    18    19 ar  
    39    18    44 1   
    40    19    20 ar  
    41    19    24 1   
    42    20    21 ar  
    43    20    45 1   
    44    21    22 ar  
    45    21    46 1   
    46    22    23 ar  
    47    23    47 1   
    48    24    25 1   
    49    24    26 2   
    50    25    48 1   
    51    25    49 1   
    52    26    50 1   
    53    27    28 ar  
    54    27    51 1   
    55    28    52 1   
@<TRIPOS>SUBSTRUCTURE
     1 497         1 TEMP              0 ****  ****    0 ROOT
