@<TRIPOS>MOLECULE
499
   36    40     1     0     0
SMALL
No Charge or Current Charge


@<TRIPOS>ATOM
      1 C1          -3.4550    -0.4320    -0.0030 cc         1 499       0.517800
      2 C2          -2.6820     0.7820     0.0070 cc         1 499      -0.211000
      3 C3          -3.2500     2.0460    -0.0750 cd         1 499      -0.103100
      4 C11          4.2770    -1.2880     0.3040 ca         1 499      -0.051200
      5 C12          5.6210    -1.4800    -0.0440 ca         1 499      -0.127000
      6 C13          6.2300    -0.5370    -0.8990 ca         1 499      -0.092000
      7 C14          5.4900     0.5630    -1.3920 ca         1 499      -0.139000
      8 C15          4.1370     0.7330    -1.0290 ca         1 499      -0.063000
      9 C16          3.5680    -0.2140    -0.1640 ca         1 499      -0.084800
     10 C           -5.1460    -1.6440    -0.0710 cc         1 499       0.645900
     11 O           -4.8080    -0.3470    -0.0970 os         1 499      -0.318000
     12 N2          -3.0250    -1.6860     0.0700 nd         1 499      -0.351000
     13 N1          -4.1440    -2.4810     0.0220 nd         1 499      -0.428000
     14 C8          -1.2600     0.9770     0.0960 ca         1 499      -0.098800
     15 C4          -1.0110     2.3320     0.0660 ca         1 499       0.355500
     16 N3          -2.2110     3.0090    -0.0380 na         1 499      -0.314400
     17 C7          -0.2190     0.0440     0.1970 ca         1 499      -0.022000
     18 C6           1.0930     0.5570     0.2620 ca         1 499      -0.074800
     19 C5           1.2600     1.9650     0.2300 ca         1 499       0.365900
     20 N4           0.2300     2.8470     0.1330 nb         1 499      -0.679000
     21 C9           2.2440    -0.3390     0.3730 cc         1 499      -0.092400
     22 N5           3.4870    -2.0990     1.1080 na         1 499      -0.217700
     23 C10          2.2060    -1.4920     1.1450 cd         1 499      -0.139100
     24 H1          -4.2990     2.3290    -0.1550 h4         1 499       0.225000
     25 H2           6.1800    -2.3350     0.3310 ha         1 499       0.113000
     26 H3           7.2720    -0.6610    -1.1860 ha         1 499       0.110000
     27 H4           5.9650     1.2800    -2.0580 ha         1 499       0.111000
     28 H5           3.5590     1.5670    -1.4180 ha         1 499       0.116000
     29 H6          -7.0660    -1.2720    -0.5190 hn         1 499       0.487500
     30 H7          -6.6390    -2.9390    -0.4220 hn         1 499       0.487500
     31 H8          -2.3100     4.0160    -0.0790 hn         1 499       0.366000
     32 H9          -0.4100    -1.0260     0.2120 ha         1 499       0.144000
     33 H10          2.2540     2.4050     0.3020 h4         1 499       0.027100
     34 H11          3.7730    -2.9520     1.5800 hn         1 499       0.352000
     35 H12          1.3880    -1.9090     1.7280 h4         1 499       0.219000
     36 N           -6.4390    -1.9810    -0.1550 nv         1 499      -1.033900
@<TRIPOS>BOND
     1     1     2 1   
     2     1    11 1   
     3     1    12 2   
     4     2     3 2   
     5     2    14 1   
     6     3    16 1   
     7     3    24 1   
     8     4     5 ar  
     9     4     9 ar  
    10     4    22 1   
    11     5     6 ar  
    12     5    25 1   
    13     6     7 ar  
    14     6    26 1   
    15     7     8 ar  
    16     7    27 1   
    17     8     9 ar  
    18     8    28 1   
    19     9    21 1   
    20    10    11 1   
    21    10    13 2   
    22    10    36 1   
    23    12    13 1   
    24    14    15 ar  
    25    14    17 ar  
    26    15    16 1   
    27    15    20 ar  
    28    16    31 1   
    29    17    18 ar  
    30    17    32 1   
    31    18    19 ar  
    32    18    21 1   
    33    19    20 ar  
    34    19    33 1   
    35    21    23 2   
    36    22    23 1   
    37    22    34 1   
    38    23    35 1   
    39    29    36 1   
    40    30    36 1   
@<TRIPOS>SUBSTRUCTURE
     1 499         1 TEMP              0 ****  ****    0 ROOT
