@<TRIPOS>MOLECULE
499
   36    40     1     0     0
SMALL
abcg2


@<TRIPOS>ATOM
      1 C1          -3.4660    -0.4280    -0.0270 cc         1 499       0.517800
      2 C2          -2.7020     0.7830    -0.0070 cc         1 499      -0.211000
      3 C3          -3.1850     2.0670    -0.0970 cd         1 499      -0.103100
      4 C11          4.3200    -1.2740     0.3150 ca         1 499      -0.051200
      5 C12          5.6440    -1.4580    -0.0780 ca         1 499      -0.127000
      6 C13          6.1850    -0.5310    -0.9470 ca         1 499      -0.092000
      7 C14          5.4240     0.5500    -1.4230 ca         1 499      -0.139000
      8 C15          4.1130     0.7290    -1.0290 ca         1 499      -0.063000
      9 C16          3.5400    -0.1850    -0.1350 ca         1 499      -0.084800
     10 C           -5.1870    -1.6510    -0.1350 cc         1 499       0.645900
     11 O           -4.8160    -0.3610    -0.1440 os         1 499      -0.318000
     12 N2          -3.0620    -1.6440     0.0520 nd         1 499      -0.351000
     13 N1          -4.1780    -2.4510    -0.0240 nd         1 499      -0.428000
     14 C8          -1.2790     0.8890     0.1100 ca         1 499      -0.098800
     15 C4          -0.9790     2.2650     0.0820 ca         1 499       0.355500
     16 N3          -2.1550     2.9470    -0.0460 na         1 499      -0.314400
     17 C7          -0.2110     0.0060     0.2190 ca         1 499      -0.022000
     18 C6           1.0720     0.5360     0.3130 ca         1 499      -0.074800
     19 C5           1.2200     1.9370     0.2850 ca         1 499       0.365900
     20 N4           0.2250     2.8000     0.1660 nb         1 499      -0.679000
     21 C9           2.2410    -0.3290     0.4640 cc         1 499      -0.092400
     22 N5           3.5340    -2.0300     1.1340 na         1 499      -0.217700
     23 C10          2.2970    -1.4700     1.2220 cd         1 499      -0.139100
     24 H1          -4.2000     2.4150    -0.1960 h4         1 499       0.225000
     25 H2           6.2260    -2.2960     0.2850 ha         1 499       0.113000
     26 H3           7.2110    -0.6430    -1.2720 ha         1 499       0.110000
     27 H4           5.8760     1.2510    -2.1120 ha         1 499       0.111000
     28 H5           3.5410     1.5620    -1.4170 ha         1 499       0.116000
     29 H6          -7.1090    -1.2730    -0.6220 hn         1 499       0.487500
     30 H7          -6.7260    -2.9000    -0.3750 hn         1 499       0.487500
     31 H8          -2.2490     3.9500    -0.0820 hn         1 499       0.366000
     32 H9          -0.3680    -1.0650     0.2190 ha         1 499       0.144000
     33 H10          2.2110     2.3680     0.3850 h4         1 499       0.027100
     34 H11          3.8200    -2.8690     1.6110 hn         1 499       0.352000
     35 H12          1.5340    -1.9170     1.8410 h4         1 499       0.219000
     36 N           -6.5010    -1.9390    -0.1730 nv         1 499      -1.033900
@<TRIPOS>BOND
     1     1     2 1   
     2     1    11 1   
     3     1    12 2   
     4     2     3 2   
     5     2    14 1   
     6     3    16 1   
     7     3    24 1   
     8     4     5 ar  
     9     4     9 ar  
    10     4    22 1   
    11     5     6 ar  
    12     5    25 1   
    13     6     7 ar  
    14     6    26 1   
    15     7     8 ar  
    16     7    27 1   
    17     8     9 ar  
    18     8    28 1   
    19     9    21 1   
    20    10    11 1   
    21    10    13 2   
    22    10    36 1   
    23    12    13 1   
    24    14    15 ar  
    25    14    17 ar  
    26    15    16 1   
    27    15    20 ar  
    28    16    31 1   
    29    17    18 ar  
    30    17    32 1   
    31    18    19 ar  
    32    18    21 1   
    33    19    20 ar  
    34    19    33 1   
    35    21    23 2   
    36    22    23 1   
    37    22    34 1   
    38    23    35 1   
    39    29    36 1   
    40    30    36 1   
@<TRIPOS>SUBSTRUCTURE
     1 499         1 TEMP              0 ****  ****    0 ROOT
