@<TRIPOS>MOLECULE
49A
   38    38     1     0     0
SMALL
abcg2


@<TRIPOS>ATOM
      1 C1          -3.2250     0.2660    -1.6160 c          1 49A       0.727200
      2 C2          -2.1960    -0.0460    -0.5340 ce         1 49A       0.038900
      3 C3          -2.5180    -0.4530     0.6940 c2         1 49A      -0.384200
      4 C4          -1.5080    -0.7070     1.7710 c6         1 49A       0.207700
      5 C5          -0.1860    -0.0540     1.3710 c6         1 49A       0.074700
      6 C6           0.1030    -0.3850    -0.0980 c6         1 49A       0.120300
      7 C7           1.4180     0.1980    -0.6080 c3         1 49A       0.159300
      8 C8           1.7240    -0.2130    -2.0600 c3         1 49A       0.129300
      9 C9           3.0910     0.2910    -2.5040 c3         1 49A       0.118800
     10 C11          2.7780    -0.4300     3.7040 c3         1 49A      -0.184100
     11 N5           0.8850    -0.5050     2.2250 ns         1 49A      -0.508900
     12 O1A         -4.4180     0.0970    -1.3030 o          1 49A      -0.696000
     13 O1B         -2.7740     0.6590    -2.7040 o          1 49A      -0.696000
     14 N4          -1.9710    -0.1500     3.0350 n8         1 49A      -0.972200
     15 O6          -0.9160     0.1350    -0.9370 os         1 49A      -0.319100
     16 O7           1.4540     1.5970    -0.4580 oh         1 49A      -0.658000
     17 O8           1.6200    -1.6140    -2.2270 oh         1 49A      -0.639000
     18 N9           3.3180    -0.0080    -3.9070 n8         1 49A      -0.985200
     19 O10          1.5430     1.5080     3.0330 o          1 49A      -0.586100
     20 H3          -3.5640    -0.6030     0.9220 ha         1 49A       0.208000
     21 H4          -1.3340    -1.7950     1.8420 h1         1 49A      -0.008300
     22 H5          -0.2810     1.0260     1.4920 h1         1 49A       0.121700
     23 H6           0.1330    -1.4780    -0.2040 h1         1 49A       0.041700
     24 H7           2.2200    -0.1960     0.0280 h1         1 49A       0.044700
     25 H8           0.9660     0.2170    -2.7240 h1         1 49A       0.128700
     26 H91          3.1280     1.3730    -2.3720 h1         1 49A       0.029200
     27 H92          3.8560    -0.1290    -1.8280 h1         1 49A       0.029200
     28 H111         3.0150     0.0880     4.6300 hc         1 49A       0.050033
     29 H112         2.5250    -1.4640     3.9320 hc         1 49A       0.050033
     30 H113         3.6790    -0.4360     3.0870 hc         1 49A       0.050033
     31 HN5          1.0710    -1.4960     2.2430 hn         1 49A       0.292500
     32 HN41        -2.8440    -0.5970     3.2900 hn         1 49A       0.378500
     33 HN42        -1.3190    -0.4140     3.7660 hn         1 49A       0.378500
     34 HO7          0.7190     1.9710    -0.9570 ho         1 49A       0.470000
     35 HO8          2.3110    -2.0370    -1.7060 ho         1 49A       0.412000
     36 HN91         4.2090     0.3790    -4.1920 hn         1 49A       0.387000
     37 HN92         3.3990    -1.0080    -4.0340 hn         1 49A       0.387000
     38 C10          1.6770     0.2960     2.9690 c          1 49A       0.601100
@<TRIPOS>BOND
     1     1     2 1   
     2     1    12 1   
     3     1    13 1   
     4     2     3 2   
     5     2    15 1   
     6     3     4 1   
     7     3    20 1   
     8     4     5 1   
     9     4    14 1   
    10     4    21 1   
    11     5     6 1   
    12     5    11 1   
    13     5    22 1   
    14     6     7 1   
    15     6    15 1   
    16     6    23 1   
    17     7     8 1   
    18     7    16 1   
    19     7    24 1   
    20     8     9 1   
    21     8    17 1   
    22     8    25 1   
    23     9    18 1   
    24     9    26 1   
    25     9    27 1   
    26    10    28 1   
    27    10    29 1   
    28    10    30 1   
    29    10    38 1   
    30    11    31 1   
    31    11    38 1   
    32    14    32 1   
    33    14    33 1   
    34    16    34 1   
    35    17    35 1   
    36    18    36 1   
    37    18    37 1   
    38    19    38 2   
@<TRIPOS>SUBSTRUCTURE
     1 49A         1 TEMP              0 ****  ****    0 ROOT
