@<TRIPOS>MOLECULE
49A
   38    38     1     0     0
SMALL
No Charge or Current Charge


@<TRIPOS>ATOM
      1 C1          -3.4390     0.3940    -1.5570 c          1 49A       0.727200
      2 C2          -2.3560     0.0470    -0.5230 ce         1 49A       0.038900
      3 C3          -2.6440    -0.3820     0.7350 c2         1 49A      -0.384200
      4 C4          -1.5810    -0.7090     1.7450 c6         1 49A       0.207700
      5 C5          -0.2280    -0.0290     1.3880 c6         1 49A       0.074700
      6 C6           0.0490    -0.3060    -0.1200 c6         1 49A       0.120300
      7 C7           1.3650     0.3490    -0.6680 c3         1 49A       0.159300
      8 C8           1.8370    -0.2540    -2.0330 c3         1 49A       0.129300
      9 C9           3.1290     0.4270    -2.5860 c3         1 49A       0.118800
     10 C11          2.8600    -0.5660     3.6630 c3         1 49A      -0.184100
     11 N5           0.8550    -0.5320     2.2690 ns         1 49A      -0.508900
     12 O1A         -4.6180     0.2760    -1.2420 o          1 49A      -0.696000
     13 O1B         -3.0950     0.7810    -2.6690 o          1 49A      -0.696000
     14 N4          -2.0520    -0.3310     3.0790 n8         1 49A      -0.972200
     15 O6          -1.0370     0.1930    -0.9480 os         1 49A      -0.319100
     16 O7           1.1850     1.7720    -0.8070 oh         1 49A      -0.658000
     17 O8           2.0720    -1.6770    -1.8990 oh         1 49A      -0.639000
     18 N9           3.5830    -0.1450    -3.8780 n8         1 49A      -0.985200
     19 O10          1.9420     1.4320     2.6720 o          1 49A      -0.586100
     20 H3          -3.6790    -0.5000     1.0570 ha         1 49A       0.208000
     21 H4          -1.4370    -1.7990     1.7610 h1         1 49A      -0.008300
     22 H5          -0.3360     1.0570     1.5280 h1         1 49A       0.121700
     23 H6           0.1070    -1.3950    -0.2530 h1         1 49A       0.041700
     24 H7           2.1680     0.1550     0.0560 h1         1 49A       0.044700
     25 H8           1.0340    -0.0780    -2.7630 h1         1 49A       0.128700
     26 H91          2.9570     1.5020    -2.7310 h1         1 49A       0.029200
     27 H92          3.9380     0.3100    -1.8520 h1         1 49A       0.029200
     28 H111         3.6440     0.0670     4.0950 hc         1 49A       0.050033
     29 H112         2.3190    -1.1240     4.4360 hc         1 49A       0.050033
     30 H113         3.2810    -1.3700     3.0490 hc         1 49A       0.050033
     31 HN5          0.8780    -1.5240     2.4730 hn         1 49A       0.292500
     32 HN41        -2.8310    -0.9460     3.3320 hn         1 49A       0.378500
     33 HN42        -1.3190    -0.5700     3.7530 hn         1 49A       0.378500
     34 HO7          0.2490     1.8960    -1.0850 ho         1 49A       0.470000
     35 HO8          2.9050    -1.7900    -1.3940 ho         1 49A       0.412000
     36 HN91         4.5330     0.1880    -4.0830 hn         1 49A       0.387000
     37 HN92         3.6920    -1.1600    -3.7680 hn         1 49A       0.387000
     38 C10          1.8590     0.2240     2.8280 c          1 49A       0.601100
@<TRIPOS>BOND
     1     1     2 1   
     2     1    12 1   
     3     1    13 1   
     4     2     3 2   
     5     2    15 1   
     6     3     4 1   
     7     3    20 1   
     8     4     5 1   
     9     4    14 1   
    10     4    21 1   
    11     5     6 1   
    12     5    11 1   
    13     5    22 1   
    14     6     7 1   
    15     6    15 1   
    16     6    23 1   
    17     7     8 1   
    18     7    16 1   
    19     7    24 1   
    20     8     9 1   
    21     8    17 1   
    22     8    25 1   
    23     9    18 1   
    24     9    26 1   
    25     9    27 1   
    26    10    28 1   
    27    10    29 1   
    28    10    30 1   
    29    10    38 1   
    30    11    31 1   
    31    11    38 1   
    32    14    32 1   
    33    14    33 1   
    34    16    34 1   
    35    17    35 1   
    36    18    36 1   
    37    18    37 1   
    38    19    38 2   
@<TRIPOS>SUBSTRUCTURE
     1 49A         1 TEMP              0 ****  ****    0 ROOT
