@<TRIPOS>MOLECULE
49B
   34    37     1     0     0
SMALL
No Charge or Current Charge


@<TRIPOS>ATOM
      1 C1           0.4950     2.3670     0.4480 ca         1 49B       0.443900
      2 C2           0.5450     0.9610     0.2730 cp         1 49B      -0.165000
      3 C3          -0.6930     0.2960     0.1010 ca         1 49B       0.033000
      4 C11          6.6310    -1.4000    -0.1520 ca         1 49B      -0.101000
      5 C12          6.6310    -0.0790    -0.6250 ca         1 49B      -0.104000
      6 C13          5.4360     0.6590    -0.6400 ca         1 49B      -0.093000
      7 C14          4.2400     0.0740    -0.1800 ca         1 49B      -0.079000
      8 C15          3.0430     0.8120    -0.1950 ca         1 49B      -0.059000
      9 C6          -4.5350    -1.3140    -0.3440 cs         1 49B       0.466500
     10 N3          -5.1380    -0.1170    -0.5120 ns         1 49B      -0.300400
     11 N2          -4.3420     0.9480    -0.3770 nc         1 49B      -0.542300
     12 O           -3.2320    -1.0010    -0.0760 os         1 49B      -0.331700
     13 C5          -3.1780     0.3820    -0.1010 cd         1 49B       0.604200
     14 C4          -1.8890     1.0410     0.1210 ca         1 49B      -0.290900
     15 C           -1.7780     2.4210     0.3040 ca         1 49B       0.681900
     16 N           -2.7870     3.2820     0.3590 nv         1 49B      -1.067900
     17 N1          -0.6480     3.0860     0.4620 nb         1 49B      -0.766000
     18 C7           1.8470     0.2130     0.2660 cp         1 49B      -0.075000
     19 C9           4.2280    -1.2600     0.2990 ca         1 49B       0.267000
     20 N4           3.0920    -1.8450     0.7440 nb         1 49B      -0.653000
     21 C8           1.9440    -1.1280     0.7250 ca         1 49B       0.359900
     22 C10          5.4360    -1.9830     0.3060 ca         1 49B      -0.080000
     23 H1           1.4100     2.9390     0.5950 h4         1 49B       0.025100
     24 H2          -0.7150    -0.7800    -0.0630 ha         1 49B       0.140000
     25 H3           7.5550    -1.9740    -0.1400 ha         1 49B       0.118000
     26 H4           7.5540     0.3730    -0.9800 ha         1 49B       0.116000
     27 H5           5.4420     1.6830    -1.0080 ha         1 49B       0.115000
     28 H6           3.0420     1.8320    -0.5730 ha         1 49B       0.119000
     29 H7          -6.1380    -0.0520    -0.7320 hn         1 49B       0.510000
     30 H8          -3.6630     2.9600    -0.0450 hn         1 49B       0.515500
     31 H9          -2.5290     4.2440     0.1850 hn         1 49B       0.515500
     32 H10          1.0640    -1.6450     1.1060 h4         1 49B       0.021100
     33 H11          5.4430    -3.0070     0.6700 ha         1 49B       0.133000
     34 S           -5.2280    -2.8310    -0.4490 s          1 49B      -0.475400
@<TRIPOS>BOND
     1     1     2 ar  
     2     1    17 ar  
     3     1    23 1   
     4     2     3 ar  
     5     2    18 1   
     6     3    14 ar  
     7     3    24 1   
     8     4     5 ar  
     9     4    22 ar  
    10     4    25 1   
    11     5     6 ar  
    12     5    26 1   
    13     6     7 ar  
    14     6    27 1   
    15     7     8 ar  
    16     7    19 ar  
    17     8    18 ar  
    18     8    28 1   
    19     9    10 1   
    20     9    12 1   
    21     9    34 2   
    22    10    11 1   
    23    10    29 1   
    24    11    13 2   
    25    12    13 1   
    26    13    14 1   
    27    14    15 ar  
    28    15    16 1   
    29    15    17 ar  
    30    16    30 1   
    31    16    31 1   
    32    18    21 ar  
    33    19    20 ar  
    34    19    22 ar  
    35    20    21 ar  
    36    21    32 1   
    37    22    33 1   
@<TRIPOS>SUBSTRUCTURE
     1 49B         1 TEMP              0 ****  ****    0 ROOT
