@<TRIPOS>MOLECULE
49B
   34    37     1     0     0
SMALL
bcc


@<TRIPOS>ATOM
      1 C1           0.5120     2.3720     0.4670 ca         1 49B       0.509200
      2 C2           0.5720     0.9910     0.2640 cp         1 49B      -0.230300
      3 C3          -0.6430     0.3500     0.0670 ca         1 49B       0.015000
      4 C11          6.5310    -1.4560    -0.1100 ca         1 49B      -0.119000
      5 C12          6.5530    -0.1750    -0.7020 ca         1 49B      -0.122000
      6 C13          5.4140     0.5800    -0.7620 ca         1 49B      -0.111000
      7 C14          4.2020     0.0820    -0.2290 ca         1 49B      -0.144300
      8 C15          2.9960     0.8100    -0.2690 ca         1 49B      -0.077000
      9 C6          -4.3880    -1.3120    -0.5450 cs         1 49B       0.533500
     10 N3          -5.0690    -0.1760    -0.4220 ns         1 49B      -0.253900
     11 N2          -4.2720     0.8880    -0.1770 nc         1 49B      -0.542300
     12 O           -3.0990    -0.9430    -0.3690 os         1 49B      -0.331700
     13 C5          -3.0870     0.3920    -0.1510 cd         1 49B       0.604200
     14 C4          -1.8340     1.0670     0.0700 ca         1 49B      -0.356200
     15 C           -1.7730     2.4720     0.2800 ca         1 49B       0.747200
     16 N           -2.8570     3.2540     0.2950 nv         1 49B      -0.957500
     17 N1          -0.5970     3.0800     0.4740 nb         1 49B      -0.766000
     18 C7           1.8510     0.2720     0.2630 cp         1 49B      -0.140300
     19 C9           4.1790    -1.2050     0.3600 ca         1 49B       0.397600
     20 N4           3.0440    -1.7310     0.8820 nb         1 49B      -0.653000
     21 C8           1.9510    -1.0240     0.8340 ca         1 49B       0.425200
     22 C10          5.3700    -1.9620     0.4100 ca         1 49B      -0.163300
     23 H1           1.4260     2.9280     0.6520 h4         1 49B       0.025100
     24 H2          -0.6620    -0.7170    -0.1100 ha         1 49B       0.158000
     25 H3           7.4420    -2.0390    -0.0660 ha         1 49B       0.136000
     26 H4           7.4800     0.2090    -1.1080 ha         1 49B       0.134000
     27 H5           5.4260     1.5630    -1.2160 ha         1 49B       0.133000
     28 H6           2.9870     1.7860    -0.7420 ha         1 49B       0.137000
     29 H7          -6.0700    -0.0670    -0.4920 hn         1 49B       0.396500
     30 H8          -3.7870     2.8900     0.1750 hn         1 49B       0.460300
     31 H9          -2.7380     4.2420     0.4410 hn         1 49B       0.460300
     32 H10          1.0690    -1.4730     1.2820 h4         1 49B       0.021100
     33 H11          5.3430    -2.9430     0.8680 ha         1 49B       0.151000
     34 S           -4.8860    -2.8480    -0.8420 s          1 49B      -0.475400
@<TRIPOS>BOND
     1     1     2 ar  
     2     1    17 ar  
     3     1    23 1   
     4     2     3 ar  
     5     2    18 1   
     6     3    14 ar  
     7     3    24 1   
     8     4     5 ar  
     9     4    22 ar  
    10     4    25 1   
    11     5     6 ar  
    12     5    26 1   
    13     6     7 ar  
    14     6    27 1   
    15     7     8 ar  
    16     7    19 ar  
    17     8    18 ar  
    18     8    28 1   
    19     9    10 1   
    20     9    12 1   
    21     9    34 2   
    22    10    11 1   
    23    10    29 1   
    24    11    13 2   
    25    12    13 1   
    26    13    14 1   
    27    14    15 ar  
    28    15    16 1   
    29    15    17 ar  
    30    16    30 1   
    31    16    31 1   
    32    18    21 ar  
    33    19    20 ar  
    34    19    22 ar  
    35    20    21 ar  
    36    21    32 1   
    37    22    33 1   
@<TRIPOS>SUBSTRUCTURE
     1 49B         1 TEMP              0 ****  ****    0 ROOT
