@<TRIPOS>MOLECULE
49C
   39    42     1     0     0
SMALL
bcc


@<TRIPOS>ATOM
      1 C4           2.3450     0.3300     0.2570 c5         1 49C       0.230100
      2 C14          0.2350     0.8520    -0.9220 c2         1 49C       0.232900
      3 C5           3.7040    -0.2990     0.1130 ca         1 49C      -0.100300
      4 C6           4.6930     0.6730     0.1670 ca         1 49C      -0.074300
      5 C11          5.3480    -1.9910    -0.2300 ca         1 49C      -0.134000
      6 C7           4.0890     2.0310     0.3840 c5         1 49C      -0.033100
      7 C8           2.6730     1.7030     0.8750 c5         1 49C      -0.102400
      8 C9           6.0260     0.3170     0.0200 ca         1 49C      -0.118000
      9 C10          6.3460    -1.0210    -0.1750 ca         1 49C      -0.115000
     10 C12          4.0130    -1.6340    -0.0910 ca         1 49C      -0.084000
     11 C13          1.6570     0.4500    -1.0980 c6         1 49C      -0.081200
     12 C2           0.2390    -0.2670     1.2560 c          1 49C       0.770800
     13 O3           1.5560    -0.4790     1.1370 os         1 49C      -0.412900
     14 O15         -0.3010     1.4810    -1.9390 oh         1 49C      -0.465100
     15 C16         -0.4190     0.5270     0.2230 ce         1 49C      -0.320600
     16 S17         -2.0700     1.0450     0.4800 ss         1 49C      -0.143500
     17 C18         -3.0220    -0.3770     0.0150 ca         1 49C       0.022900
     18 C19         -2.4710    -1.5350    -0.5230 ca         1 49C      -0.115000
     19 C20         -3.2820    -2.6070    -0.8640 ca         1 49C      -0.114000
     20 C21         -4.6550    -2.5380    -0.6760 ca         1 49C      -0.123000
     21 C22         -5.2190    -1.3880    -0.1450 ca         1 49C      -0.110000
     22 C23         -4.4020    -0.3230     0.1960 ca         1 49C       0.034400
     23 CL          -5.1150     1.1120     0.8560 cl         1 49C      -0.097400
     24 H1           5.6160    -3.0290    -0.3780 ha         1 49C       0.135000
     25 H2           4.6460     2.6360     1.1000 hc         1 49C       0.058700
     26 H3           4.0650     2.5970    -0.5520 hc         1 49C       0.058700
     27 H4           1.9430     2.4740     0.6270 hc         1 49C       0.068200
     28 H5           2.6840     1.5960     1.9620 hc         1 49C       0.068200
     29 H6           6.8070     1.0660     0.0650 ha         1 49C       0.136000
     30 H7           7.3830    -1.3140    -0.2820 ha         1 49C       0.133000
     31 H8           3.2380    -2.3900    -0.1330 ha         1 49C       0.144000
     32 H9           2.1810     1.1800    -1.7180 hc         1 49C       0.091700
     33 H10          1.6850    -0.5010    -1.6420 hc         1 49C       0.091700
     34 H11         -1.2320     1.6980    -1.7540 ho         1 49C       0.464000
     35 H12         -1.4050    -1.6040    -0.6860 ha         1 49C       0.137000
     36 H13         -2.8330    -3.4980    -1.2810 ha         1 49C       0.135000
     37 H14         -5.2900    -3.3720    -0.9440 ha         1 49C       0.138000
     38 H15         -6.2870    -1.3170     0.0060 ha         1 49C       0.147000
     39 O1          -0.3450    -0.7730     2.1810 o          1 49C      -0.552500
@<TRIPOS>BOND
     1     1     3 1   
     2     1     7 1   
     3     1    11 1   
     4     1    13 1   
     5     2    11 1   
     6     2    14 1   
     7     2    15 2   
     8     3     4 ar  
     9     3    10 ar  
    10     4     6 1   
    11     4     8 ar  
    12     5     9 ar  
    13     5    10 ar  
    14     5    24 1   
    15     6     7 1   
    16     6    25 1   
    17     6    26 1   
    18     7    27 1   
    19     7    28 1   
    20     8     9 ar  
    21     8    29 1   
    22     9    30 1   
    23    10    31 1   
    24    11    32 1   
    25    11    33 1   
    26    12    13 1   
    27    12    15 1   
    28    12    39 2   
    29    14    34 1   
    30    15    16 1   
    31    16    17 1   
    32    17    18 ar  
    33    17    22 ar  
    34    18    19 ar  
    35    18    35 1   
    36    19    20 ar  
    37    19    36 1   
    38    20    21 ar  
    39    20    37 1   
    40    21    22 ar  
    41    21    38 1   
    42    22    23 1   
@<TRIPOS>SUBSTRUCTURE
     1 49C         1 TEMP              0 ****  ****    0 ROOT
