@<TRIPOS>MOLECULE
49C
   39    42     1     0     0
SMALL
No Charge or Current Charge


@<TRIPOS>ATOM
      1 C4           2.3590     0.1920     0.3460 c5         1 49C       0.253300
      2 C14          0.0780     0.4880    -0.5310 c2         1 49C       0.232900
      3 C5           3.7650    -0.2690     0.0460 ca         1 49C      -0.100300
      4 C6           4.6530     0.7870    -0.0350 ca         1 49C      -0.074300
      5 C11          5.5550    -1.8270    -0.4490 ca         1 49C      -0.116000
      6 C7           3.9840     2.1140     0.2050 c5         1 49C      -0.033100
      7 C8           2.6600     1.6390     0.9170 c5         1 49C      -0.102400
      8 C9           6.0100     0.5700    -0.3240 ca         1 49C      -0.100000
      9 C10          6.4600    -0.7480    -0.5300 ca         1 49C      -0.097000
     10 C12          4.1960    -1.5910    -0.1610 ca         1 49C      -0.066000
     11 C13          1.4830     0.1430    -0.9170 c6         1 49C      -0.081200
     12 C2           0.4860    -0.3460     1.7730 c          1 49C       0.695300
     13 O3           1.7960    -0.6020     1.4200 os         1 49C      -0.436100
     14 O15         -0.6520     1.0290    -1.5150 oh         1 49C      -0.504100
     15 C16         -0.3840     0.2640     0.7070 ce         1 49C      -0.320600
     16 S17         -2.0460     0.6680     1.2420 ss         1 49C      -0.016600
     17 C18         -3.0650    -0.4690     0.3030 ca         1 49C      -0.104000
     18 C19         -2.6640    -1.8120     0.1610 ca         1 49C      -0.097000
     19 C20         -3.4560    -2.7120    -0.5730 ca         1 49C      -0.096000
     20 C21         -4.6520    -2.2770    -1.1670 ca         1 49C      -0.105000
     21 C22         -5.0570    -0.9380    -1.0260 ca         1 49C      -0.092000
     22 C23         -4.2690    -0.0350    -0.2920 ca         1 49C       0.126000
     23 Cl          -4.8000     1.6390    -0.1450 cl         1 49C      -0.189000
     24 H1           5.9060    -2.8440    -0.6100 ha         1 49C       0.117000
     25 H2           4.5760     2.7880     0.8350 hc         1 49C       0.058700
     26 H3           3.7750     2.6330    -0.7370 hc         1 49C       0.058700
     27 H4           1.8350     2.3420     0.7550 hc         1 49C       0.068200
     28 H5           2.8220     1.5950     2.0010 hc         1 49C       0.068200
     29 H6           6.7020     1.4060    -0.3890 ha         1 49C       0.118000
     30 H7           7.5080    -0.9350    -0.7540 ha         1 49C       0.115000
     31 H8           3.4930    -2.4180    -0.0990 ha         1 49C       0.126000
     32 H9           1.8660     0.8400    -1.6740 hc         1 49C       0.091700
     33 H10          1.5080    -0.8620    -1.3580 hc         1 49C       0.091700
     34 H11         -1.5440     1.1840    -1.1400 ho         1 49C       0.503000
     35 H12         -1.7440    -2.1620     0.6220 ha         1 49C       0.119000
     36 H13         -3.1420    -3.7490    -0.6790 ha         1 49C       0.117000
     37 H14         -5.2640    -2.9740    -1.7360 ha         1 49C       0.120000
     38 H15         -5.9820    -0.5990    -1.4860 ha         1 49C       0.129000
     39 O1           0.0650    -0.6420     2.8810 o          1 49C      -0.477000
@<TRIPOS>BOND
     1     1     3 1   
     2     1     7 1   
     3     1    11 1   
     4     1    13 1   
     5     2    11 1   
     6     2    14 1   
     7     2    15 2   
     8     3     4 ar  
     9     3    10 ar  
    10     4     6 1   
    11     4     8 ar  
    12     5     9 ar  
    13     5    10 ar  
    14     5    24 1   
    15     6     7 1   
    16     6    25 1   
    17     6    26 1   
    18     7    27 1   
    19     7    28 1   
    20     8     9 ar  
    21     8    29 1   
    22     9    30 1   
    23    10    31 1   
    24    11    32 1   
    25    11    33 1   
    26    12    13 1   
    27    12    15 1   
    28    12    39 2   
    29    14    34 1   
    30    15    16 1   
    31    16    17 1   
    32    17    18 ar  
    33    17    22 ar  
    34    18    19 ar  
    35    18    35 1   
    36    19    20 ar  
    37    19    36 1   
    38    20    21 ar  
    39    20    37 1   
    40    21    22 ar  
    41    21    38 1   
    42    22    23 1   
@<TRIPOS>SUBSTRUCTURE
     1 49C         1 TEMP              0 ****  ****    0 ROOT
