@<TRIPOS>MOLECULE
49D
   45    48     1     0     0
SMALL
abcg2


@<TRIPOS>ATOM
      1 C2          -4.5520    -3.6510     0.5880 c5         1 49D      -0.078400
      2 C3          -4.2070    -2.2930     1.2120 c5         1 49D      -0.091900
      3 C4          -4.5370    -1.8870    -1.1280 c5         1 49D      -0.091900
      4 C5          -3.6380    -1.4930     0.0420 c5         1 49D       0.096300
      5 N8          -3.5670    -0.0690     0.2800 na         1 49D       0.127800
      6 C11         -2.4850     0.7210     0.2060 cc         1 49D       0.188400
      7 N13         -1.2380     0.3250    -0.0960 nc         1 49D      -0.725100
      8 N9          -4.6750     0.6350     0.5960 nc         1 49D      -0.524800
      9 C10         -4.3010     1.8830     0.7290 cd         1 49D       0.328900
     10 C12         -2.9180     2.0140     0.4940 cd         1 49D      -0.370600
     11 C16         -1.9660     3.0750     0.4800 c          1 49D       0.635600
     12 O17         -2.1510     4.2590     0.7050 o          1 49D      -0.539000
     13 N15         -0.6910     2.6040     0.1580 ns         1 49D      -0.461400
     14 C14         -0.3650     1.2990    -0.1090 cd         1 49D       0.753800
     15 N18          0.9230     1.0520    -0.3760 nu         1 49D      -0.908400
     16 C19          1.4140    -0.2730    -0.7340 c3         1 49D       0.300800
     17 C20          1.1280    -0.6170    -2.1920 c3         1 49D      -0.110100
     18 C24          2.8840    -0.3440    -0.3920 ca         1 49D      -0.110300
     19 C29          3.8310     0.3510    -1.1400 ca         1 49D      -0.088500
     20 C28          5.1780     0.2990    -0.8160 ca         1 49D      -0.103500
     21 C27          5.5820    -0.4650     0.2680 ca         1 49D       0.128000
     22 C26          4.6620    -1.1710     1.0260 ca         1 49D      -0.103500
     23 C25          3.3180    -1.1010     0.6910 ca         1 49D      -0.088500
     24 C1          -4.7330    -3.3930    -0.9300 c5         1 49D      -0.078400
     25 CL           7.2640    -0.5420     0.6770 cl         1 49D      -0.194000
     26 H1          -3.7470    -4.3670     0.7570 hc         1 49D       0.043950
     27 H2          -5.4480    -4.0760     1.0400 hc         1 49D       0.043950
     28 H3          -5.1070    -1.7950     1.5770 hc         1 49D       0.060200
     29 H4          -3.5080    -2.3680     2.0450 hc         1 49D       0.060200
     30 H5          -5.4870    -1.3550    -1.0430 hc         1 49D       0.060200
     31 H6          -4.1030    -1.6330    -2.0960 hc         1 49D       0.060200
     32 H7          -2.6120    -1.8110    -0.1610 h1         1 49D       0.079700
     33 H8          -5.0190     2.6470     0.9860 h4         1 49D       0.048100
     34 H9           0.0430     3.3000     0.1310 hn         1 49D       0.321500
     35 H10          1.5580     1.8300    -0.4560 hn         1 49D       0.499000
     36 H11          0.8850    -0.9900    -0.1040 h1         1 49D       0.086700
     37 H12          1.6050     0.0850    -2.8760 hc         1 49D       0.049700
     38 H13          1.4950    -1.6180    -2.4200 hc         1 49D       0.049700
     39 H14          0.0540    -0.6000    -2.3780 hc         1 49D       0.049700
     40 H15          3.5290     0.9420    -1.9960 ha         1 49D       0.120500
     41 H16          5.9010     0.8470    -1.4050 ha         1 49D       0.133500
     42 H17          4.9840    -1.7660     1.8700 ha         1 49D       0.133500
     43 H18          2.6000    -1.6520     1.2850 ha         1 49D       0.120500
     44 H19         -3.9850    -3.9470    -1.4990 hc         1 49D       0.043950
     45 H20         -5.7070    -3.7220    -1.2920 hc         1 49D       0.043950
@<TRIPOS>BOND
     1     1     2 1   
     2     1    24 1   
     3     1    26 1   
     4     1    27 1   
     5     2     4 1   
     6     2    28 1   
     7     2    29 1   
     8     3     4 1   
     9     3    24 1   
    10     3    30 1   
    11     3    31 1   
    12     4     5 1   
    13     4    32 1   
    14     5     6 1   
    15     5     8 1   
    16     6     7 1   
    17     6    10 2   
    18     7    14 2   
    19     8     9 2   
    20     9    10 1   
    21     9    33 1   
    22    10    11 1   
    23    11    12 2   
    24    11    13 1   
    25    13    14 1   
    26    13    34 1   
    27    14    15 1   
    28    15    16 1   
    29    15    35 1   
    30    16    17 1   
    31    16    18 1   
    32    16    36 1   
    33    17    37 1   
    34    17    38 1   
    35    17    39 1   
    36    18    19 ar  
    37    18    23 ar  
    38    19    20 ar  
    39    19    40 1   
    40    20    21 ar  
    41    20    41 1   
    42    21    22 ar  
    43    21    25 1   
    44    22    23 ar  
    45    22    42 1   
    46    23    43 1   
    47    24    44 1   
    48    24    45 1   
@<TRIPOS>SUBSTRUCTURE
     1 49D         1 TEMP              0 ****  ****    0 ROOT
