@<TRIPOS>MOLECULE
49D
   45    48     1     0     0
SMALL
No Charge or Current Charge


@<TRIPOS>ATOM
      1 C2          -4.5850    -3.7250     0.5910 c5         1 49D      -0.078400
      2 C3          -4.3680    -2.3260     1.2360 c5         1 49D      -0.091900
      3 C4          -4.8890    -1.8740    -1.0180 c5         1 49D      -0.091900
      4 C5          -3.8220    -1.5000     0.0430 c5         1 49D       0.096300
      5 N8          -3.6540    -0.0590     0.2920 na         1 49D       0.127800
      6 C11         -2.4740     0.6690     0.1590 cc         1 49D       0.188400
      7 N13         -1.2090     0.2860    -0.2160 nc         1 49D      -0.725100
      8 N9          -4.7230     0.7330     0.7030 nc         1 49D      -0.524800
      9 C10         -4.1740     1.9350     0.8140 cd         1 49D       0.328900
     10 C12         -2.8070     1.9320     0.4900 cd         1 49D      -0.370600
     11 C16         -1.8360     3.0100     0.4740 c          1 49D       0.635600
     12 O17         -2.0720     4.1720     0.7590 o          1 49D      -0.539000
     13 N15         -0.6100     2.5710     0.0970 ns         1 49D      -0.461400
     14 C14         -0.3400     1.2840    -0.2220 cd         1 49D       0.753800
     15 N18          0.9300     1.0090    -0.5800 nu         1 49D      -0.908400
     16 C19          1.5040    -0.3090    -0.8700 c3         1 49D       0.300800
     17 C20          1.3200    -0.6420    -2.3640 c3         1 49D      -0.110100
     18 C24          2.9700    -0.3160    -0.4340 ca         1 49D      -0.110300
     19 C29          3.9470     0.4290    -1.1330 ca         1 49D      -0.088500
     20 C28          5.2890     0.4120    -0.7120 ca         1 49D      -0.103500
     21 C27          5.6650    -0.3430     0.4090 ca         1 49D       0.128000
     22 C26          4.7010    -1.0810     1.1140 ca         1 49D      -0.103500
     23 C25          3.3590    -1.0660     0.6960 ca         1 49D      -0.088500
     24 C1          -4.9310    -3.4250    -0.9040 c5         1 49D      -0.078400
     25 Cl           7.3430    -0.3620     0.9340 cl         1 49D      -0.194000
     26 H1          -3.6770    -4.3350     0.6620 hc         1 49D       0.043950
     27 H2          -5.3820    -4.2830     1.0960 hc         1 49D       0.043950
     28 H3          -5.3100    -1.9140     1.6200 hc         1 49D       0.060200
     29 H4          -3.6650    -2.3600     2.0760 hc         1 49D       0.060200
     30 H5          -5.8660    -1.4310    -0.7860 hc         1 49D       0.060200
     31 H6          -4.6130    -1.5390    -2.0240 hc         1 49D       0.060200
     32 H7          -2.8470    -1.9040    -0.2630 h1         1 49D       0.079700
     33 H8          -4.7860     2.7730     1.1250 h4         1 49D       0.048100
     34 H9           0.1120     3.2670     0.0530 hn         1 49D       0.321500
     35 H10          1.5830     1.7690    -0.4300 hn         1 49D       0.499000
     36 H11          0.9780    -1.0850    -0.2930 h1         1 49D       0.086700
     37 H12          1.7600     0.1290    -3.0060 hc         1 49D       0.049700
     38 H13          1.7950    -1.6010    -2.5990 hc         1 49D       0.049700
     39 H14          0.2550    -0.7220    -2.6100 hc         1 49D       0.049700
     40 H15          3.6720     1.0250    -2.0000 ha         1 49D       0.120500
     41 H16          6.0370     0.9860    -1.2540 ha         1 49D       0.133500
     42 H17          4.9940    -1.6630     1.9840 ha         1 49D       0.133500
     43 H18          2.6210    -1.6400     1.2530 ha         1 49D       0.120500
     44 H19         -4.1940    -3.8890    -1.5700 hc         1 49D       0.043950
     45 H20         -5.9120    -3.8250    -1.1890 hc         1 49D       0.043950
@<TRIPOS>BOND
     1     1     2 1   
     2     1    24 1   
     3     1    26 1   
     4     1    27 1   
     5     2     4 1   
     6     2    28 1   
     7     2    29 1   
     8     3     4 1   
     9     3    24 1   
    10     3    30 1   
    11     3    31 1   
    12     4     5 1   
    13     4    32 1   
    14     5     6 1   
    15     5     8 1   
    16     6     7 1   
    17     6    10 2   
    18     7    14 2   
    19     8     9 2   
    20     9    10 1   
    21     9    33 1   
    22    10    11 1   
    23    11    12 2   
    24    11    13 1   
    25    13    14 1   
    26    13    34 1   
    27    14    15 1   
    28    15    16 1   
    29    15    35 1   
    30    16    17 1   
    31    16    18 1   
    32    16    36 1   
    33    17    37 1   
    34    17    38 1   
    35    17    39 1   
    36    18    19 ar  
    37    18    23 ar  
    38    19    20 ar  
    39    19    40 1   
    40    20    21 ar  
    41    20    41 1   
    42    21    22 ar  
    43    21    25 1   
    44    22    23 ar  
    45    22    42 1   
    46    23    43 1   
    47    24    44 1   
    48    24    45 1   
@<TRIPOS>SUBSTRUCTURE
     1 49D         1 TEMP              0 ****  ****    0 ROOT
