@<TRIPOS>MOLECULE
49E
   45    48     1     0     0
SMALL
bcc


@<TRIPOS>ATOM
      1 C2          -4.7360    -3.4030     0.9250 c5         1 49E      -0.078400
      2 C3          -4.5340    -1.8980     1.1230 c5         1 49E      -0.091900
      3 C4          -4.2120    -2.3050    -1.2180 c5         1 49E      -0.091900
      4 C5          -3.6380    -1.5040    -0.0500 c5         1 49E       0.067000
      5 N8          -3.5680    -0.0800    -0.2890 na         1 49E       0.105400
      6 C11         -2.4860     0.7110    -0.2090 cc         1 49E       0.239100
      7 N13         -1.2410     0.3160     0.1010 nc         1 49E      -0.725100
      8 N9          -4.6750     0.6240    -0.6080 nc         1 49E      -0.524800
      9 C10         -4.3010     1.8720    -0.7370 cd         1 49E       0.394200
     10 C12         -2.9190     2.0040    -0.4970 cd         1 49E      -0.435900
     11 C16         -1.9680     3.0660    -0.4770 c          1 49E       0.778100
     12 O17         -2.1530     4.2500    -0.7010 o          1 49E      -0.614500
     13 N15         -0.6950     2.5950    -0.1510 ns         1 49E      -0.528400
     14 C14         -0.3690     1.2910     0.1200 cd         1 49E       0.753800
     15 N18          0.9160     1.0460     0.3990 nu         1 49E      -0.853200
     16 C19          1.4100    -0.2800     0.7510 c3         1 49E       0.300800
     17 C20          1.1130    -0.6340     2.2050 c3         1 49E      -0.110100
     18 C24          2.8820    -0.3410     0.4160 ca         1 49E      -0.111300
     19 C29          3.3180    -1.0500    -0.6980 ca         1 49E      -0.106000
     20 C28          4.6630    -1.1050    -1.0340 ca         1 49E      -0.122000
     21 C27          5.5810    -0.4330    -0.2440 ca         1 49E       0.036400
     22 C26          5.1750     0.2840     0.8710 ca         1 49E      -0.122000
     23 C25          3.8270     0.3220     1.1940 ca         1 49E      -0.106000
     24 C1          -4.5480    -3.6640    -0.5920 c5         1 49E      -0.078400
     25 CL           7.2640    -0.4920    -0.6530 cl         1 49E      -0.102400
     26 H1          -3.9950    -3.9620     1.4980 hc         1 49E       0.043950
     27 H2          -5.7150    -3.7250     1.2800 hc         1 49E       0.043950
     28 H3          -5.4820    -1.3620     1.0420 hc         1 49E       0.060200
     29 H4          -4.0950    -1.6450     2.0890 hc         1 49E       0.060200
     30 H5          -5.1160    -1.8090    -1.5760 hc         1 49E       0.060200
     31 H6          -3.5180    -2.3760    -2.0560 hc         1 49E       0.060200
     32 H7          -2.6120    -1.8220     0.1490 h1         1 49E       0.079700
     33 H8          -5.0190     2.6360    -0.9950 h4         1 49E       0.048100
     34 H9           0.0400     3.2910    -0.1250 hn         1 49E       0.321500
     35 H10          1.5480     1.8260     0.4960 hn         1 49E       0.443800
     36 H11          0.8880    -0.9940     0.1130 h1         1 49E       0.086700
     37 H12          1.5750     0.0700     2.8970 hc         1 49E       0.049700
     38 H13          0.0380    -0.6280     2.3790 hc         1 49E       0.049700
     39 H14          1.4880    -1.6320     2.4330 hc         1 49E       0.049700
     40 H15          2.6010    -1.5750    -1.3170 ha         1 49E       0.138500
     41 H16          4.9860    -1.6590    -1.9040 ha         1 49E       0.151500
     42 H17          5.8970     0.8060     1.4840 ha         1 49E       0.151500
     43 H18          3.5240     0.8790     2.0720 ha         1 49E       0.138500
     44 H19         -3.7360    -4.3720    -0.7570 hc         1 49E       0.043950
     45 H20         -5.4380    -4.0980    -1.0470 hc         1 49E       0.043950
@<TRIPOS>BOND
     1     1     2 1   
     2     1    24 1   
     3     1    26 1   
     4     1    27 1   
     5     2     4 1   
     6     2    28 1   
     7     2    29 1   
     8     3     4 1   
     9     3    24 1   
    10     3    30 1   
    11     3    31 1   
    12     4     5 1   
    13     4    32 1   
    14     5     6 1   
    15     5     8 1   
    16     6     7 1   
    17     6    10 2   
    18     7    14 2   
    19     8     9 2   
    20     9    10 1   
    21     9    33 1   
    22    10    11 1   
    23    11    12 2   
    24    11    13 1   
    25    13    14 1   
    26    13    34 1   
    27    14    15 1   
    28    15    16 1   
    29    15    35 1   
    30    16    17 1   
    31    16    18 1   
    32    16    36 1   
    33    17    37 1   
    34    17    38 1   
    35    17    39 1   
    36    18    19 ar  
    37    18    23 ar  
    38    19    20 ar  
    39    19    40 1   
    40    20    21 ar  
    41    20    41 1   
    42    21    22 ar  
    43    21    25 1   
    44    22    23 ar  
    45    22    42 1   
    46    23    43 1   
    47    24    44 1   
    48    24    45 1   
@<TRIPOS>SUBSTRUCTURE
     1 49E         1 TEMP              0 ****  ****    0 ROOT
