@<TRIPOS>MOLECULE
49E
   45    48     1     0     0
SMALL
No Charge or Current Charge


@<TRIPOS>ATOM
      1 C2          -4.9300    -3.4430     0.8830 c5         1 49E      -0.078400
      2 C3          -4.8920    -1.8920     1.0050 c5         1 49E      -0.091900
      3 C4          -4.3600    -2.3310    -1.2490 c5         1 49E      -0.091900
      4 C5          -3.8210    -1.5090    -0.0490 c5         1 49E       0.096300
      5 N8          -3.6570    -0.0670    -0.2910 na         1 49E       0.126800
      6 C11         -2.4790     0.6630    -0.1510 cc         1 49E       0.188400
      7 N13         -1.2140     0.2820     0.2270 nc         1 49E      -0.725100
      8 N9          -4.7260     0.7250    -0.7010 nc         1 49E      -0.524800
      9 C10         -4.1800     1.9290    -0.8030 cd         1 49E       0.328900
     10 C12         -2.8140     1.9280    -0.4760 cd         1 49E      -0.370600
     11 C16         -1.8460     3.0080    -0.4510 c          1 49E       0.635600
     12 O17         -2.0840     4.1700    -0.7310 o          1 49E      -0.539000
     13 N15         -0.6200     2.5690    -0.0730 ns         1 49E      -0.461400
     14 C14         -0.3470     1.2810     0.2390 cd         1 49E       0.753800
     15 N18          0.9230     1.0080     0.6000 nu         1 49E      -0.908400
     16 C19          1.4980    -0.3100     0.8840 c3         1 49E       0.300800
     17 C20          1.3120    -0.6520     2.3750 c3         1 49E      -0.110100
     18 C24          2.9660    -0.3110     0.4510 ca         1 49E      -0.111300
     19 C29          3.3590    -1.0540    -0.6820 ca         1 49E      -0.088000
     20 C28          4.7030    -1.0630    -1.0970 ca         1 49E      -0.104000
     21 C27          5.6630    -0.3260    -0.3860 ca         1 49E       0.128000
     22 C26          5.2820     0.4220     0.7390 ca         1 49E      -0.104000
     23 C25          3.9390     0.4320     1.1560 ca         1 49E      -0.088000
     24 C1          -4.5760    -3.7340    -0.6120 c5         1 49E      -0.078400
     25 Cl           7.3430    -0.3380    -0.9070 cl         1 49E      -0.194000
     26 H1          -4.1950    -3.9080     1.5510 hc         1 49E       0.043950
     27 H2          -5.9110    -3.8460     1.1610 hc         1 49E       0.043950
     28 H3          -5.8690    -1.4510     0.7720 hc         1 49E       0.060200
     29 H4          -4.6210    -1.5620     2.0140 hc         1 49E       0.060200
     30 H5          -5.3020    -1.9190    -1.6340 hc         1 49E       0.060200
     31 H6          -3.6530    -2.3590    -2.0860 hc         1 49E       0.060200
     32 H7          -2.8470    -1.9120     0.2590 h1         1 49E       0.079700
     33 H8          -4.7930     2.7670    -1.1120 h4         1 49E       0.048100
     34 H9           0.1010     3.2680    -0.0230 hn         1 49E       0.321500
     35 H10          1.5740     1.7700     0.4560 hn         1 49E       0.499000
     36 H11          0.9770    -1.0840     0.3020 h1         1 49E       0.086700
     37 H12          1.7490     0.1170     3.0220 hc         1 49E       0.049700
     38 H13          0.2470    -0.7360     2.6190 hc         1 49E       0.049700
     39 H14          1.7890    -1.6110     2.6070 hc         1 49E       0.049700
     40 H15          2.6240    -1.6260    -1.2440 ha         1 49E       0.120500
     41 H16          4.9990    -1.6390    -1.9700 ha         1 49E       0.133500
     42 H17          6.0270     0.9940     1.2860 ha         1 49E       0.133500
     43 H18          3.6600     1.0230     2.0260 ha         1 49E       0.120500
     44 H19         -3.6650    -4.3410    -0.6810 hc         1 49E       0.043950
     45 H20         -5.3680    -4.2920    -1.1240 hc         1 49E       0.043950
@<TRIPOS>BOND
     1     1     2 1   
     2     1    24 1   
     3     1    26 1   
     4     1    27 1   
     5     2     4 1   
     6     2    28 1   
     7     2    29 1   
     8     3     4 1   
     9     3    24 1   
    10     3    30 1   
    11     3    31 1   
    12     4     5 1   
    13     4    32 1   
    14     5     6 1   
    15     5     8 1   
    16     6     7 1   
    17     6    10 2   
    18     7    14 2   
    19     8     9 2   
    20     9    10 1   
    21     9    33 1   
    22    10    11 1   
    23    11    12 2   
    24    11    13 1   
    25    13    14 1   
    26    13    34 1   
    27    14    15 1   
    28    15    16 1   
    29    15    35 1   
    30    16    17 1   
    31    16    18 1   
    32    16    36 1   
    33    17    37 1   
    34    17    38 1   
    35    17    39 1   
    36    18    19 ar  
    37    18    23 ar  
    38    19    20 ar  
    39    19    40 1   
    40    20    21 ar  
    41    20    41 1   
    42    21    22 ar  
    43    21    25 1   
    44    22    23 ar  
    45    22    42 1   
    46    23    43 1   
    47    24    44 1   
    48    24    45 1   
@<TRIPOS>SUBSTRUCTURE
     1 49E         1 TEMP              0 ****  ****    0 ROOT
