@<TRIPOS>MOLECULE
49F
   24    24     1     0     0
SMALL
bcc


@<TRIPOS>ATOM
      1 CAC          1.9570    -1.2190    -0.0170 c5         1 49F      -0.109400
      2 CAD          3.1500    -0.2840     0.2520 c5         1 49F      -0.114400
      3 CAE          2.5930     1.1200    -0.0460 c5         1 49F       0.133800
      4 NAA          1.1530     1.0470     0.1630 n7         1 49F      -0.773200
      5 CAB          0.7840    -0.2690    -0.3560 c5         1 49F       0.143500
      6 CAF         -0.5630    -0.7460     0.1540 c3         1 49F      -0.076400
      7 CAG         -1.7000     0.1780    -0.2370 c3         1 49F       0.138400
      8 OAH         -2.9150    -0.3670     0.2170 os         1 49F      -0.414600
      9 CAI         -4.0210     0.4350    -0.1030 c3         1 49F       0.126700
     10 H2           2.1450    -1.9180    -0.8330 hc         1 49F       0.047700
     11 H3           1.7210    -1.8180     0.8650 hc         1 49F       0.047700
     12 H5           3.4630    -0.3500     1.2960 hc         1 49F       0.046700
     13 H6           4.0220    -0.5210    -0.3590 hc         1 49F       0.046700
     14 H7           3.0360     1.9020     0.5710 h1         1 49F       0.054200
     15 H8           2.7820     1.3830    -1.0910 h1         1 49F       0.054200
     16 H9           0.9760     1.0550     1.1640 hn         1 49F       0.342800
     17 H11          0.7270    -0.1760    -1.4480 h1         1 49F       0.062700
     18 H12         -0.7540    -1.7450    -0.2480 hc         1 49F       0.052200
     19 H13         -0.5220    -0.8490     1.2450 hc         1 49F       0.052200
     20 H14         -1.5420     1.1790     0.1870 h1         1 49F       0.028700
     21 H15         -1.7170     0.3000    -1.3310 h1         1 49F       0.028700
     22 H16         -3.9470     1.4370     0.3380 h1         1 49F       0.026700
     23 H17         -4.1440     0.5550    -1.1870 h1         1 49F       0.026700
     24 H18         -4.9150    -0.0480     0.2910 h1         1 49F       0.026700
@<TRIPOS>BOND
     1     1     2 1   
     2     1     5 1   
     3     1    10 1   
     4     1    11 1   
     5     2     3 1   
     6     2    12 1   
     7     2    13 1   
     8     3     4 1   
     9     3    14 1   
    10     3    15 1   
    11     4     5 1   
    12     4    16 1   
    13     5     6 1   
    14     5    17 1   
    15     6     7 1   
    16     6    18 1   
    17     6    19 1   
    18     7     8 1   
    19     7    20 1   
    20     7    21 1   
    21     8     9 1   
    22     9    22 1   
    23     9    23 1   
    24     9    24 1   
@<TRIPOS>SUBSTRUCTURE
     1 49F         1 TEMP              0 ****  ****    0 ROOT
