@<TRIPOS>MOLECULE
49F
   24    24     1     0     0
SMALL
No Charge or Current Charge


@<TRIPOS>ATOM
      1 CAC          1.9570    -1.1910     0.2050 c5         1 49F      -0.109400
      2 CAD          3.2040    -0.3040    -0.0640 c5         1 49F      -0.114400
      3 CAE          2.6540     1.1490     0.0520 c5         1 49F       0.133800
      4 NAA          1.2240     1.0040     0.4150 n7         1 49F      -0.828400
      5 CAB          0.8160    -0.2510    -0.2410 c5         1 49F       0.143500
      6 CAF         -0.5940    -0.7190     0.1850 c3         1 49F      -0.076400
      7 CAG         -1.7270     0.2170    -0.2780 c3         1 49F       0.161600
      8 OAH         -2.9760    -0.3700     0.1270 os         1 49F      -0.461000
      9 CAI         -4.1380     0.3940    -0.2380 c3         1 49F       0.149900
     10 H2           1.9770    -2.1280    -0.3630 hc         1 49F       0.047700
     11 H3           1.8750    -1.4530     1.2670 hc         1 49F       0.047700
     12 H5           4.0080    -0.5020     0.6550 hc         1 49F       0.046700
     13 H6           3.6150    -0.4830    -1.0650 hc         1 49F       0.046700
     14 H7           3.1990     1.7420     0.8010 h1         1 49F       0.054200
     15 H8           2.7510     1.6670    -0.9130 h1         1 49F       0.054200
     16 H9           1.1650     0.8540     1.4290 hn         1 49F       0.398000
     17 H11          0.8230    -0.1340    -1.3360 h1         1 49F       0.062700
     18 H12         -0.7790    -1.7170    -0.2300 hc         1 49F       0.052200
     19 H13         -0.6430    -0.8220     1.2760 hc         1 49F       0.052200
     20 H14         -1.5990     1.2080     0.1760 h1         1 49F       0.028700
     21 H15         -1.6870     0.3270    -1.3700 h1         1 49F       0.028700
     22 H16         -4.1080     1.3910     0.2210 h1         1 49F       0.026700
     23 H17         -4.1990     0.5150    -1.3280 h1         1 49F       0.026700
     24 H18         -5.0500    -0.1120     0.1020 h1         1 49F       0.026700
@<TRIPOS>BOND
     1     1     2 1   
     2     1     5 1   
     3     1    10 1   
     4     1    11 1   
     5     2     3 1   
     6     2    12 1   
     7     2    13 1   
     8     3     4 1   
     9     3    14 1   
    10     3    15 1   
    11     4     5 1   
    12     4    16 1   
    13     5     6 1   
    14     5    17 1   
    15     6     7 1   
    16     6    18 1   
    17     6    19 1   
    18     7     8 1   
    19     7    20 1   
    20     7    21 1   
    21     8     9 1   
    22     9    22 1   
    23     9    23 1   
    24     9    24 1   
@<TRIPOS>SUBSTRUCTURE
     1 49F         1 TEMP              0 ****  ****    0 ROOT
