@<TRIPOS>MOLECULE
49G
   33    34     1     0     0
SMALL
No Charge or Current Charge


@<TRIPOS>ATOM
      1 C16          5.9590    -0.0220    -0.3470 ca         1 49G      -0.112000
      2 C14          5.3180     1.1860    -0.0260 ca         1 49G      -0.110000
      3 C15          5.2540    -1.2340    -0.2610 ca         1 49G      -0.110000
      4 C12          3.9730     1.1830     0.3810 ca         1 49G      -0.107000
      5 C13          3.9080    -1.2380     0.1470 ca         1 49G      -0.107000
      6 C4          -3.5710     1.3020     0.2190 cc         1 49G      -0.229000
      7 C5          -4.8480     0.9760     0.5580 cd         1 49G      -0.174000
      8 C9           3.2610    -0.0300     0.4720 ca         1 49G      -0.079300
      9 C3          -3.0060     0.1740    -0.3970 cc         1 49G       0.244300
     10 C11          1.8010    -0.0340     0.9080 c3         1 49G      -0.034100
     11 C7          -1.5800     0.1560    -0.9220 c3         1 49G       0.134500
     12 C10          0.8390     0.0860    -0.2920 c3         1 49G       0.157800
     13 N1          -3.8420    -0.8450    -0.4740 nd         1 49G      -0.505800
     14 N2          -4.9930    -0.3460     0.1250 na         1 49G       0.132800
     15 N6          -0.5650     0.0750     0.1620 n7         1 49G      -0.852400
     16 H1           7.0000    -0.0190    -0.6630 ha         1 49G       0.111000
     17 H2           5.8630     2.1250    -0.0940 ha         1 49G       0.110500
     18 H3           5.7490    -2.1700    -0.5100 ha         1 49G       0.110500
     19 H4           3.4830     2.1230     0.6260 ha         1 49G       0.111000
     20 H5           3.3690    -2.1800     0.2090 ha         1 49G       0.111000
     21 H6          -3.0660     2.2490     0.3830 ha         1 49G       0.142000
     22 H7          -5.6340     1.5410     1.0470 h4         1 49G       0.151000
     23 H8          -6.5470    -1.4710    -0.7460 h1         1 49G       0.055367
     24 H9          -5.9630    -2.0770     0.8340 h1         1 49G       0.055367
     25 H10         -6.9870    -0.6120     0.7600 h1         1 49G       0.055367
     26 H11          1.5760    -0.9560     1.4580 hc         1 49G       0.054200
     27 H12          1.6140     0.7930     1.6040 hc         1 49G       0.054200
     28 H13         -1.4690    -0.6960    -1.6070 h1         1 49G       0.042200
     29 H14         -1.4260     1.0670    -1.5170 h1         1 49G       0.042200
     30 H15          1.0590     1.0160    -0.8340 h1         1 49G       0.032200
     31 H16          1.0240    -0.7520    -0.9780 h1         1 49G       0.032200
     32 H17         -0.7060     0.8750     0.7920 hn         1 49G       0.406000
     33 C8          -6.1980    -1.1780     0.2520 c3         1 49G       0.073900
@<TRIPOS>BOND
     1     1     2 ar  
     2     1     3 ar  
     3     1    16 1   
     4     2     4 ar  
     5     2    17 1   
     6     3     5 ar  
     7     3    18 1   
     8     4     8 ar  
     9     4    19 1   
    10     5     8 ar  
    11     5    20 1   
    12     6     7 2   
    13     6     9 1   
    14     6    21 1   
    15     7    14 1   
    16     7    22 1   
    17     8    10 1   
    18     9    11 1   
    19     9    13 2   
    20    10    12 1   
    21    10    26 1   
    22    10    27 1   
    23    11    15 1   
    24    11    28 1   
    25    11    29 1   
    26    12    15 1   
    27    12    30 1   
    28    12    31 1   
    29    13    14 1   
    30    14    33 1   
    31    15    32 1   
    32    23    33 1   
    33    24    33 1   
    34    25    33 1   
@<TRIPOS>SUBSTRUCTURE
     1 49G         1 TEMP              0 ****  ****    0 ROOT
