@<TRIPOS>MOLECULE
49G
   33    34     1     0     0
SMALL
bcc


@<TRIPOS>ATOM
      1 C16          5.8270    -0.0470    -0.3930 ca         1 49G      -0.130000
      2 C14          5.1800     1.1330    -0.0470 ca         1 49G      -0.128000
      3 C15          5.1510    -1.2540    -0.2850 ca         1 49G      -0.128000
      4 C12          3.8670     1.1020     0.4010 ca         1 49G      -0.125000
      5 C13          3.8360    -1.2790     0.1620 ca         1 49G      -0.125000
      6 C4          -3.6240     1.4900     0.0400 cc         1 49G      -0.312300
      7 C5          -4.8550     0.9970     0.4070 cd         1 49G      -0.141300
      8 C9           3.1760    -0.1030     0.5110 ca         1 49G      -0.079300
      9 C3          -2.9210     0.3660    -0.4290 cc         1 49G       0.309600
     10 C11          1.7370    -0.1280     0.9450 c3         1 49G      -0.034100
     11 C7          -1.5090     0.3090    -0.9120 c3         1 49G       0.134500
     12 C10          0.7970     0.1100    -0.2350 c3         1 49G       0.157800
     13 N1          -3.6710    -0.7220    -0.3520 nd         1 49G      -0.505800
     14 N2          -4.8320    -0.3240     0.1560 na         1 49G       0.111400
     15 N6          -0.5870     0.0900     0.1930 n7         1 49G      -0.797200
     16 H1           6.8530    -0.0250    -0.7400 ha         1 49G       0.129000
     17 H2           5.7000     2.0790    -0.1260 ha         1 49G       0.128500
     18 H3           5.6470    -2.1800    -0.5470 ha         1 49G       0.128500
     19 H4           3.3720     2.0280     0.6700 ha         1 49G       0.129000
     20 H5           3.3160    -2.2270     0.2480 ha         1 49G       0.129000
     21 H6          -3.2820     2.5100     0.0980 ha         1 49G       0.160000
     22 H7          -5.7270     1.4810     0.8160 h4         1 49G       0.169000
     23 H8          -6.2640    -1.6350    -0.6240 h1         1 49G       0.055367
     24 H9          -5.5700    -2.1120     0.9370 h1         1 49G       0.055367
     25 H10         -6.7260    -0.7770     0.8530 h1         1 49G       0.055367
     26 H11          1.4960    -1.0900     1.4020 hc         1 49G       0.054200
     27 H12          1.5630     0.6410     1.7030 hc         1 49G       0.054200
     28 H13         -1.3990    -0.5190    -1.6180 h1         1 49G       0.042200
     29 H14         -1.2860     1.2300    -1.4710 h1         1 49G       0.042200
     30 H15          1.0750     1.0520    -0.7340 h1         1 49G       0.032200
     31 H16          0.9420    -0.6840    -0.9750 h1         1 49G       0.032200
     32 H17         -0.7260     0.8250     0.8790 hn         1 49G       0.350800
     33 C8          -5.9070    -1.2690     0.3370 c3         1 49G       0.044600
@<TRIPOS>BOND
     1     1     2 ar  
     2     1     3 ar  
     3     1    16 1   
     4     2     4 ar  
     5     2    17 1   
     6     3     5 ar  
     7     3    18 1   
     8     4     8 ar  
     9     4    19 1   
    10     5     8 ar  
    11     5    20 1   
    12     6     7 2   
    13     6     9 1   
    14     6    21 1   
    15     7    14 1   
    16     7    22 1   
    17     8    10 1   
    18     9    11 1   
    19     9    13 2   
    20    10    12 1   
    21    10    26 1   
    22    10    27 1   
    23    11    15 1   
    24    11    28 1   
    25    11    29 1   
    26    12    15 1   
    27    12    30 1   
    28    12    31 1   
    29    13    14 1   
    30    14    33 1   
    31    15    32 1   
    32    23    33 1   
    33    24    33 1   
    34    25    33 1   
@<TRIPOS>SUBSTRUCTURE
     1 49G         1 TEMP              0 ****  ****    0 ROOT
