@<TRIPOS>MOLECULE
49H
   70    74     1     0     0
SMALL
abcg2


@<TRIPOS>ATOM
      1 N           -0.5770     1.7080    -0.9460 n2         1 49H      -0.603900
      2 CG1          1.7000    -0.7010     0.0510 ca         1 49H      -0.109300
      3 CG2          1.7580     2.1320    -0.3180 ca         1 49H      -0.062300
      4 CG3         -2.6820     0.5920    -0.5870 ca         1 49H      -0.202900
      5 CD1          2.9490    -1.2740    -0.1530 ca         1 49H      -0.082000
      6 CD2          1.2170    -0.5900     1.3520 ca         1 49H      -0.082000
      7 CD3          3.1010     2.2120    -0.6690 ca         1 49H      -0.100000
      8 CD4          1.3290     2.7090     0.8710 ca         1 49H      -0.080000
      9 CD5         -3.5780     0.3170    -1.6000 ca         1 49H      -0.005000
     10 CD6         -3.1620     0.8700     0.7020 ca         1 49H       0.239100
     11 CE1          3.7140    -1.7260     0.9120 ca         1 49H      -0.105000
     12 CE2          1.9650    -1.0390     2.4260 ca         1 49H      -0.105000
     13 CE3          3.9930     2.8500     0.1750 ca         1 49H       0.119000
     14 CE4          2.2350     3.3520     1.7030 ca         1 49H      -0.108000
     15 CE5         -4.9520     0.3300    -1.3850 ca         1 49H      -0.244000
     16 CE6         -4.5280     0.8930     0.9320 ca         1 49H      -0.247000
     17 CZ1          3.2120    -1.6030     2.1960 ca         1 49H       0.127000
     18 CZ2          3.5780     3.4280     1.3650 ca         1 49H      -0.099000
     19 CZ3         -5.4220     0.6250    -0.1100 ca         1 49H       0.195100
     20 CL1          4.1520    -2.1660     3.5390 cl         1 49H      -0.204000
     21 CL2          5.6680     2.9290    -0.2700 cl         1 49H      -0.209000
     22 CM1         -7.6890     0.4490    -0.7850 c3         1 49H       0.148900
     23 CM2         -1.3610     1.1460     3.8260 c3         1 49H      -0.109600
     24 CM3         -2.9000     2.9580     3.0000 c3         1 49H      -0.109600
     25 C1          -0.4320    -3.8390    -3.5270 c          1 49H       0.548000
     26 N1          -1.2060    -4.7770    -2.9710 ns         1 49H      -0.505900
     27 O1          -0.1750    -3.8010    -4.7220 o          1 49H      -0.566000
     28 C2          -1.5140    -4.9080    -1.5600 c6         1 49H       0.085000
     29 N2          -0.3190    -2.8300    -1.2540 n          1 49H      -0.411800
     30 C3          -0.4710    -4.1760    -0.7460 c6         1 49H       0.085000
     31 N3          -0.5000    -0.5360    -1.0470 n          1 49H      -0.381300
     32 O3          -6.7240     0.6790     0.2230 os         1 49H      -0.341100
     33 C4           0.1620    -2.7750    -2.6150 c6         1 49H       0.018000
     34 C5          -0.9230    -1.7980    -0.6140 c          1 49H       0.675100
     35 O5          -1.7290    -1.9420     0.2820 o          1 49H      -0.581100
     36 C6          -1.2310     0.6280    -0.8400 ce         1 49H       0.546500
     37 O6          -2.2220     1.0710     1.6350 os         1 49H      -0.349100
     38 C7           0.8090     1.3900    -1.2210 c5         1 49H       0.156800
     39 C8           0.9220    -0.1770    -1.1240 c5         1 49H       0.127000
     40 C9          -2.5620     1.4780     2.9630 c3         1 49H       0.179300
     41 HD1          3.3390    -1.3730    -1.1590 ha         1 49H       0.127000
     42 HD2          0.2470    -0.1490     1.5480 ha         1 49H       0.127000
     43 HD3          3.4500     1.7700    -1.5940 ha         1 49H       0.123000
     44 HD4          0.2840     2.6480     1.1470 ha         1 49H       0.138000
     45 HD5         -3.2070     0.0920    -2.5930 ha         1 49H       0.118000
     46 HE1          4.6850    -2.1700     0.7370 ha         1 49H       0.130000
     47 HE2          1.5830    -0.9470     3.4340 ha         1 49H       0.130000
     48 HE4          1.8950     3.7990     2.6280 ha         1 49H       0.116000
     49 HE5         -5.6180     0.1210    -2.2090 ha         1 49H       0.122000
     50 HE6         -4.9370     1.1110     1.9100 ha         1 49H       0.134000
     51 HZ2          4.2840     3.9290     2.0130 ha         1 49H       0.128000
     52 HM11        -8.6620     0.5680    -0.3130 h1         1 49H       0.042367
     53 HM12        -7.6020     1.1680    -1.6030 h1         1 49H       0.042367
     54 HM13        -7.6190    -0.5620    -1.1940 h1         1 49H       0.042367
     55 HM21        -1.5590     1.4310     4.8590 hc         1 49H       0.048033
     56 HM22        -1.1440     0.0770     3.8100 hc         1 49H       0.048033
     57 HM23        -0.4720     1.6860     3.4940 hc         1 49H       0.048033
     58 HM31        -3.7440     3.2090     2.3570 hc         1 49H       0.048033
     59 HM32        -3.1610     3.2520     4.0170 hc         1 49H       0.048033
     60 HM33        -2.0430     3.5560     2.6840 hc         1 49H       0.048033
     61 H21         -2.5090    -4.5100    -1.3430 h1         1 49H       0.055700
     62 H22         -1.5170    -5.9660    -1.2990 h1         1 49H       0.055700
     63 H31         -0.7500    -4.1570     0.3030 h1         1 49H       0.073700
     64 H32          0.4940    -4.6850    -0.8240 h1         1 49H       0.073700
     65 H41          1.2510    -2.8820    -2.6590 h1         1 49H       0.081700
     66 H42         -0.0900    -1.8160    -3.0670 h1         1 49H       0.081700
     67 H7           1.0320     1.6770    -2.2530 h1         1 49H       0.081700
     68 H8           1.3810    -0.5450    -2.0410 h1         1 49H       0.072700
     69 H9          -3.4150     0.8900     3.3190 h1         1 49H       0.048700
     70 HN1         -1.6200    -5.4490    -3.6030 hn         1 49H       0.320500
@<TRIPOS>BOND
     1     1    36 2   
     2     1    38 1   
     3     2     5 ar  
     4     2     6 ar  
     5     2    39 1   
     6     3     7 ar  
     7     3     8 ar  
     8     3    38 1   
     9     4     9 ar  
    10     4    10 ar  
    11     4    36 1   
    12     5    11 ar  
    13     5    41 1   
    14     6    12 ar  
    15     6    42 1   
    16     7    13 ar  
    17     7    43 1   
    18     8    14 ar  
    19     8    44 1   
    20     9    15 ar  
    21     9    45 1   
    22    10    16 ar  
    23    10    37 1   
    24    11    17 ar  
    25    11    46 1   
    26    12    17 ar  
    27    12    47 1   
    28    13    18 ar  
    29    13    21 1   
    30    14    18 ar  
    31    14    48 1   
    32    15    19 ar  
    33    15    49 1   
    34    16    19 ar  
    35    16    50 1   
    36    17    20 1   
    37    18    51 1   
    38    19    32 1   
    39    22    32 1   
    40    22    52 1   
    41    22    53 1   
    42    22    54 1   
    43    23    40 1   
    44    23    55 1   
    45    23    56 1   
    46    23    57 1   
    47    24    40 1   
    48    24    58 1   
    49    24    59 1   
    50    24    60 1   
    51    25    26 1   
    52    25    27 2   
    53    25    33 1   
    54    26    28 1   
    55    26    70 1   
    56    28    30 1   
    57    28    61 1   
    58    28    62 1   
    59    29    30 1   
    60    29    33 1   
    61    29    34 1   
    62    30    63 1   
    63    30    64 1   
    64    31    34 1   
    65    31    36 1   
    66    31    39 1   
    67    33    65 1   
    68    33    66 1   
    69    34    35 2   
    70    37    40 1   
    71    38    39 1   
    72    38    67 1   
    73    39    68 1   
    74    40    69 1   
@<TRIPOS>SUBSTRUCTURE
     1 49H         1 TEMP              0 ****  ****    0 ROOT
