@<TRIPOS>MOLECULE
49H
   70    74     1     0     0
SMALL
No Charge or Current Charge


@<TRIPOS>ATOM
      1 N           -0.6390     1.6160    -0.0020 n2         1 49H      -0.603900
      2 CG1          1.7100    -0.7500     0.0730 ca         1 49H      -0.109300
      3 CG2          1.9130     2.0230    -0.1160 ca         1 49H      -0.062300
      4 CG3         -2.7740     0.4860    -0.0530 ca         1 49H      -0.202900
      5 CD1          2.8980    -1.4020    -0.3200 ca         1 49H      -0.082000
      6 CD2          1.3800    -0.7210     1.4500 ca         1 49H      -0.082000
      7 CD3          3.1200     2.0450    -0.8480 ca         1 49H      -0.100000
      8 CD4          1.9150     2.5220     1.2070 ca         1 49H      -0.080000
      9 CD5         -3.5370     0.0060    -1.1370 ca         1 49H      -0.005000
     10 CD6         -3.4280     0.9750     1.0950 ca         1 49H       0.239100
     11 CE1          3.7370    -2.0060     0.6320 ca         1 49H      -0.105000
     12 CE2          2.2200    -1.3250     2.4010 ca         1 49H      -0.105000
     13 CE3          4.3010     2.5340    -0.2680 ca         1 49H       0.119000
     14 CE4          3.0980     3.0150     1.7850 ca         1 49H      -0.108000
     15 CE5         -4.9380     0.0080    -1.0750 ca         1 49H      -0.244000
     16 CE6         -4.8370     0.9670     1.1530 ca         1 49H      -0.247000
     17 CZ1          3.3980    -1.9660     1.9920 ca         1 49H       0.127000
     18 CZ2          4.2940     3.0190     1.0490 ca         1 49H      -0.099000
     19 CZ3         -5.5920     0.4910     0.0750 ca         1 49H       0.195100
     20 Cl1          4.4490    -2.7190     3.1840 cl         1 49H      -0.204000
     21 Cl2          5.7960     2.5350    -1.1940 cl         1 49H      -0.209000
     22 CM1         -7.8340     0.0440    -0.8520 c3         1 49H       0.148900
     23 CM2         -2.0530     2.1740     4.3360 c3         1 49H      -0.109600
     24 CM3         -3.4790     3.5940     2.7550 c3         1 49H      -0.109600
     25 C1          -0.0210    -3.6550    -3.8600 c          1 49H       0.548000
     26 N1          -0.8190    -4.7250    -3.5190 ns         1 49H      -0.505900
     27 O1           0.4160    -3.5500    -4.9950 o          1 49H      -0.566000
     28 C2          -1.2630    -5.0450    -2.1530 c6         1 49H       0.085000
     29 N2          -0.3130    -2.8530    -1.4070 n          1 49H      -0.411800
     30 C3          -0.4290    -4.3000    -1.0880 c6         1 49H       0.085000
     31 N3          -0.5670    -0.5040    -0.8020 n          1 49H      -0.381300
     32 O3          -6.9650     0.5120     0.1950 os         1 49H      -0.341100
     33 C4           0.2580    -2.5880    -2.7690 c6         1 49H       0.018000
     34 C5          -0.8840    -1.8570    -0.5770 c          1 49H       0.675100
     35 O5          -1.6440    -2.1800     0.3240 o          1 49H      -0.581100
     36 C6          -1.2870     0.5060    -0.1450 ce         1 49H       0.546500
     37 O6          -2.6550     1.3930     2.1640 os         1 49H      -0.349100
     38 C7           0.6420     1.4550    -0.7690 c5         1 49H       0.156800
     39 C8           0.8270    -0.0970    -1.0140 c5         1 49H       0.127000
     40 C9          -3.1590     2.1710     3.2650 c3         1 49H       0.179300
     41 HD1          3.1800    -1.4370    -1.3700 ha         1 49H       0.127000
     42 HD2          0.4760    -0.2270     1.7950 ha         1 49H       0.127000
     43 HD3          3.1450     1.6700    -1.8680 ha         1 49H       0.123000
     44 HD4          1.0020     2.5220     1.7970 ha         1 49H       0.138000
     45 HD5         -3.0430    -0.3610    -2.0350 ha         1 49H       0.118000
     46 HE1          4.6510    -2.5020     0.3160 ha         1 49H       0.130000
     47 HE2          1.9580    -1.2940     3.4560 ha         1 49H       0.130000
     48 HE4          3.0870     3.3910     2.8060 ha         1 49H       0.116000
     49 HE5         -5.4960    -0.3660    -1.9280 ha         1 49H       0.122000
     50 HE6         -5.3670     1.3160     2.0320 ha         1 49H       0.134000
     51 HZ2          5.2100     3.3970     1.4950 ha         1 49H       0.128000
     52 HM11        -8.8830     0.1500    -0.5510 h1         1 49H       0.042367
     53 HM12        -7.6840     0.6230    -1.7720 h1         1 49H       0.042367
     54 HM13        -7.6480    -1.0160    -1.0680 h1         1 49H       0.042367
     55 HM21        -2.3660     2.7590     5.2090 hc         1 49H       0.048033
     56 HM22        -1.8400     1.1520     4.6700 hc         1 49H       0.048033
     57 HM23        -1.1270     2.6110     3.9420 hc         1 49H       0.048033
     58 HM31        -4.2930     3.5810     2.0220 hc         1 49H       0.048033
     59 HM32        -3.7880     4.2370     3.5880 hc         1 49H       0.048033
     60 HM33        -2.5970     4.0450     2.2830 hc         1 49H       0.048033
     61 H21         -2.3190    -4.7550    -2.0560 h1         1 49H       0.055700
     62 H22         -1.1930    -6.1300    -1.9930 h1         1 49H       0.055700
     63 H31         -0.8730    -4.4590    -0.0960 h1         1 49H       0.073700
     64 H32          0.5810    -4.7330    -1.0570 h1         1 49H       0.073700
     65 H41          1.3490    -2.4960    -2.6960 h1         1 49H       0.081700
     66 H42         -0.1510    -1.6510    -3.1690 h1         1 49H       0.081700
     67 H7           0.5060     1.9480    -1.7420 h1         1 49H       0.081700
     68 H8           1.1990    -0.2860    -2.0280 h1         1 49H       0.072700
     69 H9          -4.0560     1.7140     3.7020 h1         1 49H       0.048700
     70 HN1         -1.0120    -5.3890    -4.2600 hn         1 49H       0.320500
@<TRIPOS>BOND
     1     1    36 2   
     2     1    38 1   
     3     2     5 ar  
     4     2     6 ar  
     5     2    39 1   
     6     3     7 ar  
     7     3     8 ar  
     8     3    38 1   
     9     4     9 ar  
    10     4    10 ar  
    11     4    36 1   
    12     5    11 ar  
    13     5    41 1   
    14     6    12 ar  
    15     6    42 1   
    16     7    13 ar  
    17     7    43 1   
    18     8    14 ar  
    19     8    44 1   
    20     9    15 ar  
    21     9    45 1   
    22    10    16 ar  
    23    10    37 1   
    24    11    17 ar  
    25    11    46 1   
    26    12    17 ar  
    27    12    47 1   
    28    13    18 ar  
    29    13    21 1   
    30    14    18 ar  
    31    14    48 1   
    32    15    19 ar  
    33    15    49 1   
    34    16    19 ar  
    35    16    50 1   
    36    17    20 1   
    37    18    51 1   
    38    19    32 1   
    39    22    32 1   
    40    22    52 1   
    41    22    53 1   
    42    22    54 1   
    43    23    40 1   
    44    23    55 1   
    45    23    56 1   
    46    23    57 1   
    47    24    40 1   
    48    24    58 1   
    49    24    59 1   
    50    24    60 1   
    51    25    26 1   
    52    25    27 2   
    53    25    33 1   
    54    26    28 1   
    55    26    70 1   
    56    28    30 1   
    57    28    61 1   
    58    28    62 1   
    59    29    30 1   
    60    29    33 1   
    61    29    34 1   
    62    30    63 1   
    63    30    64 1   
    64    31    34 1   
    65    31    36 1   
    66    31    39 1   
    67    33    65 1   
    68    33    66 1   
    69    34    35 2   
    70    37    40 1   
    71    38    39 1   
    72    38    67 1   
    73    39    68 1   
    74    40    69 1   
@<TRIPOS>SUBSTRUCTURE
     1 49H         1 TEMP              0 ****  ****    0 ROOT
