@<TRIPOS>MOLECULE
49I
   45    48     1     0     0
SMALL
abcg2


@<TRIPOS>ATOM
      1 C1           2.8050    -7.0680    16.8560 ca         1 49I      -0.118000
      2 C5           1.6600    -6.9820    18.9600 ca         1 49I      -0.132000
      3 C4           2.7840    -7.5110    19.5720 ca         1 49I      -0.117000
      4 C3           3.9320    -7.8250    18.8430 ca         1 49I      -0.067300
      5 C2           3.9420    -7.6040    17.4630 ca         1 49I      -0.038300
      6 C6           1.6710    -6.7570    17.5880 ca         1 49I      -0.121000
      7 C7           5.1340    -7.9510    16.6090 c6         1 49I      -0.039100
      8 C8           6.4100    -8.1730    17.4190 c6         1 49I       0.030600
      9 O3          11.5080    -9.9410    13.9080 o          1 49I      -0.642100
     10 C16         10.7200   -10.8770    13.8440 c          1 49I       0.598700
     11 C17         11.0240   -12.1030    13.0500 ca         1 49I      -0.125600
     12 C18         12.3430   -12.3060    12.6460 ca         1 49I      -0.067500
     13 C19         12.6850   -13.4200    11.8960 ca         1 49I      -0.133500
     14 C20         11.7110   -14.3400    11.5300 ca         1 49I      -0.106000
     15 C21         10.3930   -14.1390    11.9190 ca         1 49I      -0.133500
     16 C22         10.0500   -13.0280    12.6760 ca         1 49I      -0.067500
     17 C13          9.0480    -9.8190    15.2310 cc         1 49I      -0.043400
     18 C14          7.8140    -9.8400    15.8550 cd         1 49I      -0.224600
     19 C15          6.9120   -11.0470    15.7110 c          1 49I       0.741600
     20 O2           7.4050   -12.0490    15.1150 o          1 49I      -0.708500
     21 C11          7.5830    -8.6070    16.5750 cd         1 49I      -0.028300
     22 C12          8.6320    -7.7490    16.4450 cc         1 49I      -0.328000
     23 S1           9.9180    -8.3580    15.4830 ss         1 49I       0.184000
     24 C9           6.1320    -9.0590    18.6320 c6         1 49I      -0.074400
     25 C10          5.1440    -8.3660    19.5600 c6         1 49I      -0.027100
     26 H1           2.8160    -6.8910    15.7860 ha         1 49I       0.106000
     27 H2           0.7810    -6.7480    19.5470 ha         1 49I       0.095000
     28 H3           2.7760    -7.6870    20.6420 ha         1 49I       0.097000
     29 H4           0.8020    -6.3420    17.0930 ha         1 49I       0.097000
     30 H5           5.2990    -7.1550    15.8780 hc         1 49I       0.073700
     31 H6           4.9120    -8.8550    16.0400 hc         1 49I       0.073700
     32 H7           6.6970    -7.1940    17.8220 hc         1 49I       0.018700
     33 H9          13.1050   -11.5910    12.9240 ha         1 49I       0.139000
     34 H10         13.7130   -13.5690    11.5950 ha         1 49I       0.105500
     35 H11         11.9760   -15.2080    10.9410 ha         1 49I       0.099000
     36 H12          9.6270   -14.8460    11.6300 ha         1 49I       0.105500
     37 H13          9.0110   -12.8910    12.9470 ha         1 49I       0.139000
     38 H14          8.8440   -11.6460    14.5390 hn         1 49I       0.411500
     39 H15          8.7150    -6.7650    16.8840 h4         1 49I       0.124000
     40 H16          5.7390   -10.0200    18.3050 hc         1 49I       0.066700
     41 H17          7.0610    -9.2550    19.1720 hc         1 49I       0.066700
     42 H18          4.8260    -9.0490    20.3510 hc         1 49I       0.033200
     43 H19          5.6470    -7.5360    20.0690 hc         1 49I       0.033200
     44 N1           9.5360   -10.8620    14.4830 ns         1 49I      -0.391100
     45 O1           5.7620   -11.0030    16.1650 o          1 49I      -0.708500
@<TRIPOS>BOND
     1     1     5 ar  
     2     1     6 ar  
     3     1    26 1   
     4     2     3 ar  
     5     2     6 ar  
     6     2    27 1   
     7     3     4 ar  
     8     3    28 1   
     9     4     5 ar  
    10     4    25 1   
    11     5     7 1   
    12     6    29 1   
    13     7     8 1   
    14     7    30 1   
    15     7    31 1   
    16     8    21 1   
    17     8    24 1   
    18     8    32 1   
    19     9    10 2   
    20    10    11 1   
    21    10    44 1   
    22    11    12 ar  
    23    11    16 ar  
    24    12    13 ar  
    25    12    33 1   
    26    13    14 ar  
    27    13    34 1   
    28    14    15 ar  
    29    14    35 1   
    30    15    16 ar  
    31    15    36 1   
    32    16    37 1   
    33    17    18 2   
    34    17    23 1   
    35    17    44 1   
    36    18    19 1   
    37    18    21 1   
    38    19    20 1   
    39    19    45 1   
    40    21    22 2   
    41    22    23 1   
    42    22    39 1   
    43    24    25 1   
    44    24    40 1   
    45    24    41 1   
    46    25    42 1   
    47    25    43 1   
    48    38    44 1   
@<TRIPOS>SUBSTRUCTURE
     1 49I         1 TEMP              0 ****  ****    0 ROOT
