@<TRIPOS>MOLECULE
49I
   45    48     1     0     0
SMALL
No Charge or Current Charge


@<TRIPOS>ATOM
      1 C1           2.7650    -7.1020    16.7770 ca         1 49I      -0.118000
      2 C5           1.5180    -7.1430    18.8630 ca         1 49I      -0.132000
      3 C4           2.6550    -7.6270    19.5310 ca         1 49I      -0.117000
      4 C3           3.8550    -7.8560    18.8280 ca         1 49I      -0.067300
      5 C2           3.9130    -7.5840    17.4370 ca         1 49I      -0.038300
      6 C6           1.5730    -6.8820    17.4860 ca         1 49I      -0.121000
      7 C7           5.1900    -7.8150    16.6160 c6         1 49I      -0.039100
      8 C8           6.4460    -8.1100    17.4780 c6         1 49I       0.030600
      9 O3          11.7730   -10.0190    13.9300 o          1 49I      -0.642100
     10 C16         10.8930   -10.8670    13.8520 c          1 49I       0.598700
     11 C17         11.0930   -12.1350    13.0370 ca         1 49I      -0.125600
     12 C18         12.3210   -12.3320    12.3610 ca         1 49I      -0.067500
     13 C19         12.5470   -13.4900    11.5970 ca         1 49I      -0.133500
     14 C20         11.5510   -14.4710    11.4930 ca         1 49I      -0.106000
     15 C21         10.3280   -14.2930    12.1550 ca         1 49I      -0.133500
     16 C22         10.0950   -13.1370    12.9220 ca         1 49I      -0.067500
     17 C13          9.1890    -9.7000    15.3010 cc         1 49I      -0.043400
     18 C14          7.9140    -9.7250    15.8730 cd         1 49I      -0.224600
     19 C15          6.9670   -10.8920    15.6410 c          1 49I       0.741600
     20 O2           7.3300   -11.8320    14.9460 o          1 49I      -0.708500
     21 C11          7.6820    -8.5230    16.6660 cd         1 49I      -0.028300
     22 C12          8.7510    -7.6590    16.6670 cc         1 49I      -0.328000
     23 S1          10.0880    -8.2440    15.7160 ss         1 49I       0.184000
     24 C9           6.1450    -9.0210    18.6930 c6         1 49I      -0.074400
     25 C10          5.0770    -8.3710    19.6000 c6         1 49I      -0.027100
     26 H1           2.7990    -6.8970    15.7100 ha         1 49I       0.106000
     27 H2           0.5960    -6.9710    19.4140 ha         1 49I       0.095000
     28 H3           2.6050    -7.8240    20.5990 ha         1 49I       0.097000
     29 H4           0.6930    -6.5080    16.9670 ha         1 49I       0.097000
     30 H5           5.3900    -6.9260    16.0020 hc         1 49I       0.073700
     31 H6           5.0030    -8.6180    15.8970 hc         1 49I       0.073700
     32 H7           6.6900    -7.1370    17.9310 hc         1 49I       0.018700
     33 H9          13.1100   -11.5850    12.4260 ha         1 49I       0.139000
     34 H10         13.4970   -13.6250    11.0850 ha         1 49I       0.105500
     35 H11         11.7260   -15.3670    10.9010 ha         1 49I       0.099000
     36 H12          9.5540   -15.0540    12.0750 ha         1 49I       0.105500
     37 H13          9.1320   -13.0440    13.4150 ha         1 49I       0.139000
     38 H14          9.0290   -11.5010    14.3490 hn         1 49I       0.411500
     39 H15          8.8500    -6.7050    17.1670 h4         1 49I       0.124000
     40 H16          5.7890   -10.0080    18.3850 hc         1 49I       0.066700
     41 H17          7.0630    -9.1900    19.2710 hc         1 49I       0.066700
     42 H18          4.7620    -9.0950    20.3630 hc         1 49I       0.033200
     43 H19          5.5270    -7.5310    20.1460 hc         1 49I       0.033200
     44 N1           9.6740   -10.7280    14.4920 ns         1 49I      -0.391100
     45 O1           5.8570   -10.8880    16.1380 o          1 49I      -0.708500
@<TRIPOS>BOND
     1     1     5 ar  
     2     1     6 ar  
     3     1    26 1   
     4     2     3 ar  
     5     2     6 ar  
     6     2    27 1   
     7     3     4 ar  
     8     3    28 1   
     9     4     5 ar  
    10     4    25 1   
    11     5     7 1   
    12     6    29 1   
    13     7     8 1   
    14     7    30 1   
    15     7    31 1   
    16     8    21 1   
    17     8    24 1   
    18     8    32 1   
    19     9    10 2   
    20    10    11 1   
    21    10    44 1   
    22    11    12 ar  
    23    11    16 ar  
    24    12    13 ar  
    25    12    33 1   
    26    13    14 ar  
    27    13    34 1   
    28    14    15 ar  
    29    14    35 1   
    30    15    16 ar  
    31    15    36 1   
    32    16    37 1   
    33    17    18 2   
    34    17    23 1   
    35    17    44 1   
    36    18    19 1   
    37    18    21 1   
    38    19    20 1   
    39    19    45 1   
    40    21    22 2   
    41    22    23 1   
    42    22    39 1   
    43    24    25 1   
    44    24    40 1   
    45    24    41 1   
    46    25    42 1   
    47    25    43 1   
    48    38    44 1   
@<TRIPOS>SUBSTRUCTURE
     1 49I         1 TEMP              0 ****  ****    0 ROOT
