@<TRIPOS>MOLECULE
49J
   42    45     1     0     0
SMALL
bcc


@<TRIPOS>ATOM
      1 CAJ         -5.2270     0.1430     0.2250 c6         1 49J       0.163800
      2 CAH         -6.1210    -1.0520     0.5060 c6         1 49J       0.120900
      3 OAO         -6.0050    -2.0420    -0.4870 os         1 49J      -0.394600
      4 CAI         -4.6780    -2.5090    -0.5620 c6         1 49J       0.120900
      5 CAK         -3.7140    -1.3960    -0.9200 c6         1 49J       0.163800
      6 NAX         -3.8540    -0.2940     0.0280 nh         1 49J      -0.610400
      7 CAU         -2.8510     0.5730     0.2390 cc         1 49J       0.198600
      8 SAP         -3.1190     2.1760     0.8060 ss         1 49J       0.187900
      9 NAM         -1.5320     2.6390     0.8860 nc         1 49J      -0.289500
     10 CAV         -0.7880     1.6280     0.4720 ca         1 49J      -0.074300
     11 CAG          0.6300     1.6380     0.4160 ca         1 49J      -0.086000
     12 CAW         -1.4560     0.4260     0.0870 ca         1 49J       0.144300
     13 NAL         -0.7990    -0.6810    -0.3270 nb         1 49J      -0.622000
     14 CAE          0.4970    -0.6320    -0.3690 ca         1 49J       0.384200
     15 CAS          1.2830     0.5130    -0.0050 cp         1 49J      -0.110300
     16 CAR          2.7480     0.4520    -0.1050 cp         1 49J      -0.052000
     17 CAF          3.4360    -0.7320     0.1970 ca         1 49J      -0.162000
     18 CAD          3.4880     1.5610    -0.4970 ca         1 49J      -0.101000
     19 CAC          4.8710     1.4950    -0.5870 ca         1 49J      -0.180000
     20 CAQ          5.5660     0.3280    -0.2820 ca         1 49J       0.138600
     21 NAB          6.9410     0.2700    -0.3100 nv         1 49J      -0.812200
     22 CAT          4.8150    -0.7980     0.1190 ca         1 49J       0.076100
     23 OAN          5.5490    -1.8950     0.4090 os         1 49J      -0.328900
     24 CAA          4.8780    -3.0740     0.8030 c3         1 49J       0.128700
     25 H1          -5.5820     0.6940    -0.6540 h1         1 49J       0.068200
     26 H2          -5.2870     0.8090     1.0890 h1         1 49J       0.068200
     27 H3          -5.8700    -1.4640     1.4930 h1         1 49J       0.058450
     28 H4          -7.1600    -0.7230     0.5320 h1         1 49J       0.058450
     29 H5          -4.3750    -2.9650     0.3900 h1         1 49J       0.058450
     30 H6          -4.6390    -3.2790    -1.3330 h1         1 49J       0.058450
     31 H7          -2.6960    -1.7720    -0.8980 h1         1 49J       0.068200
     32 H8          -3.9210    -1.0310    -1.9340 h1         1 49J       0.068200
     33 H12          1.1690     2.5240     0.7290 ha         1 49J       0.155000
     34 H13          1.0020    -1.5230    -0.7260 h4         1 49J       0.017100
     35 H14          2.8770    -1.5970     0.5270 ha         1 49J       0.136000
     36 H15          2.9880     2.4820    -0.7670 ha         1 49J       0.136000
     37 H16          5.4260     2.3670    -0.9110 ha         1 49J       0.133000
     38 H17          7.3860     0.9940    -0.8510 hn         1 49J       0.397300
     39 H18          7.3450    -0.6350    -0.4960 hn         1 49J       0.397300
     40 H19          5.6470    -3.8210     0.9870 h1         1 49J       0.039700
     41 H20          4.3040    -2.9280     1.7220 h1         1 49J       0.039700
     42 H21          4.2070    -3.4440     0.0230 h1         1 49J       0.039700
@<TRIPOS>BOND
     1     1     2 1   
     2     1     6 1   
     3     1    25 1   
     4     1    26 1   
     5     2     3 1   
     6     2    27 1   
     7     2    28 1   
     8     3     4 1   
     9     4     5 1   
    10     4    29 1   
    11     4    30 1   
    12     5     6 1   
    13     5    31 1   
    14     5    32 1   
    15     6     7 1   
    16     7     8 1   
    17     7    12 2   
    18     8     9 1   
    19     9    10 2   
    20    10    11 ar  
    21    10    12 ar  
    22    11    15 ar  
    23    11    33 1   
    24    12    13 ar  
    25    13    14 ar  
    26    14    15 ar  
    27    14    34 1   
    28    15    16 1   
    29    16    17 ar  
    30    16    18 ar  
    31    17    22 ar  
    32    17    35 1   
    33    18    19 ar  
    34    18    36 1   
    35    19    20 ar  
    36    19    37 1   
    37    20    21 1   
    38    20    22 ar  
    39    21    38 1   
    40    21    39 1   
    41    22    23 1   
    42    23    24 1   
    43    24    40 1   
    44    24    41 1   
    45    24    42 1   
@<TRIPOS>SUBSTRUCTURE
     1 49J         1 TEMP              0 ****  ****    0 ROOT
