@<TRIPOS>MOLECULE
49J
   42    45     1     0     0
SMALL
No Charge or Current Charge


@<TRIPOS>ATOM
      1 CAJ         -5.2620     0.0080     0.5750 c6         1 49J       0.163800
      2 CAH         -5.9630    -1.3590     0.8240 c6         1 49J       0.144100
      3 OAO         -5.9870    -2.1500    -0.3870 os         1 49J      -0.441000
      4 CAI         -4.6620    -2.4220    -0.9030 c6         1 49J       0.144100
      5 CAK         -3.9210    -1.0940    -1.2250 c6         1 49J       0.163800
      6 NAX         -3.9110    -0.1710    -0.0430 nh         1 49J      -0.610400
      7 CAU         -2.9130     0.7930     0.1290 cc         1 49J       0.198600
      8 SAP         -3.1930     2.4650     0.6020 ss         1 49J       0.187900
      9 NAM         -1.5410     2.8610     0.6020 nc         1 49J      -0.289500
     10 CAV         -0.7990     1.7200     0.2780 ca         1 49J      -0.009000
     11 CAG          0.6040     1.7040     0.2260 ca         1 49J      -0.068000
     12 CAW         -1.4920     0.5410     0.0130 ca         1 49J       0.079000
     13 NAL         -0.8950    -0.6450    -0.2660 nb         1 49J      -0.622000
     14 CAE          0.4600    -0.6550    -0.3100 ca         1 49J       0.318900
     15 CAS          1.2740     0.4900    -0.0780 cp         1 49J      -0.045000
     16 CAR          2.7700     0.4170    -0.1450 cp         1 49J      -0.052000
     17 CAF          3.4620    -0.7570     0.2470 ca         1 49J      -0.144000
     18 CAD          3.5340     1.5170    -0.6040 ca         1 49J      -0.083000
     19 CAC          4.9360     1.4520    -0.6690 ca         1 49J      -0.162000
     20 CAQ          5.6120     0.2880    -0.2780 ca         1 49J       0.277000
     21 NAB          6.9880     0.2590    -0.3560 nv         1 49J      -1.061000
     22 CAT          4.8740    -0.8330     0.1850 ca         1 49J       0.076100
     23 OAN          5.5630    -1.9790     0.5660 os         1 49J      -0.352100
     24 CAA          4.8970    -3.1610     1.0450 c3         1 49J       0.151900
     25 H1          -5.8980     0.6220    -0.0790 h1         1 49J       0.068200
     26 H2          -5.1800     0.5350     1.5370 h1         1 49J       0.068200
     27 H3          -5.4280    -1.9150     1.6080 h1         1 49J       0.058450
     28 H4          -6.9940    -1.1940     1.1670 h1         1 49J       0.058450
     29 H5          -4.0920    -2.9970    -0.1580 h1         1 49J       0.058450
     30 H6          -4.7470    -3.0320    -1.8130 h1         1 49J       0.058450
     31 H7          -2.9080    -1.3340    -1.5700 h1         1 49J       0.068200
     32 H8          -4.4290    -0.6060    -2.0690 h1         1 49J       0.068200
     33 H12          1.1630     2.6120     0.4400 ha         1 49J       0.137000
     34 H13          0.9130    -1.6150    -0.5540 h4         1 49J       0.017100
     35 H14          2.8860    -1.6010     0.6130 ha         1 49J       0.118000
     36 H15          3.0370     2.4290    -0.9270 ha         1 49J       0.118000
     37 H16          5.4940     2.3130    -1.0280 ha         1 49J       0.115000
     38 H17          7.4890     0.9890    -0.8590 hn         1 49J       0.452500
     39 H18          7.4680    -0.6250    -0.1960 hn         1 49J       0.452500
     40 H19          5.6310    -3.9400     1.2850 h1         1 49J       0.039700
     41 H20          4.3230    -2.9440     1.9550 h1         1 49J       0.039700
     42 H21          4.2140    -3.5600     0.2840 h1         1 49J       0.039700
@<TRIPOS>BOND
     1     1     2 1   
     2     1     6 1   
     3     1    25 1   
     4     1    26 1   
     5     2     3 1   
     6     2    27 1   
     7     2    28 1   
     8     3     4 1   
     9     4     5 1   
    10     4    29 1   
    11     4    30 1   
    12     5     6 1   
    13     5    31 1   
    14     5    32 1   
    15     6     7 1   
    16     7     8 1   
    17     7    12 2   
    18     8     9 1   
    19     9    10 2   
    20    10    11 ar  
    21    10    12 ar  
    22    11    15 ar  
    23    11    33 1   
    24    12    13 ar  
    25    13    14 ar  
    26    14    15 ar  
    27    14    34 1   
    28    15    16 1   
    29    16    17 ar  
    30    16    18 ar  
    31    17    22 ar  
    32    17    35 1   
    33    18    19 ar  
    34    18    36 1   
    35    19    20 ar  
    36    19    37 1   
    37    20    21 1   
    38    20    22 ar  
    39    21    38 1   
    40    21    39 1   
    41    22    23 1   
    42    23    24 1   
    43    24    40 1   
    44    24    41 1   
    45    24    42 1   
@<TRIPOS>SUBSTRUCTURE
     1 49J         1 TEMP              0 ****  ****    0 ROOT
