@<TRIPOS>MOLECULE
49K
   35    36     1     0     0
SMALL
abcg2


@<TRIPOS>ATOM
      1 CAM          2.0870     0.8170     1.0450 ca         1 49K      -0.060500
      2 CAN          3.0060    -0.2010     1.2560 ca         1 49K      -0.155000
      3 CAO          2.9460    -1.3210     0.4510 ca         1 49K       0.177000
      4 FAP          3.8280    -2.3130     0.6480 f          1 49K      -0.178000
      5 CAQ          2.0040    -1.4520    -0.5520 ca         1 49K      -0.155000
      6 CAR          1.0960    -0.4260    -0.7510 ca         1 49K      -0.060500
      7 CAL          1.1220     0.7230     0.0400 ca         1 49K      -0.029000
      8 CAK          0.1650     1.8040    -0.1840 cc         1 49K      -0.073000
      9 NAJ          0.4690     3.0950     0.0770 na         1 49K      -0.001200
     10 NAI         -0.5230     3.9370    -0.1710 nc         1 49K      -0.514800
     11 CAH         -1.5100     3.1700    -0.5980 cd         1 49K       0.239900
     12 CAG         -1.1470     1.8150    -0.6370 cd         1 49K      -0.189300
     13 CAF         -2.0110     0.6670    -1.0480 c3         1 49K       0.257100
     14 NAB         -2.0330    -0.3920    -0.0570 n3         1 49K      -0.733600
     15 CAA         -2.6910     0.0310     1.1590 c3         1 49K       0.156100
     16 CAC         -2.5710    -1.6250    -0.5930 c3         1 49K       0.170800
     17 CAD         -2.3070    -2.8300     0.3000 c3         1 49K       0.145800
     18 NAE         -2.6850    -4.0480    -0.4010 n8         1 49K      -1.002200
     19 H1           2.1210     1.6840     1.6930 ha         1 49K       0.119500
     20 H2           3.7470    -0.1240     2.0400 ha         1 49K       0.132500
     21 H3           1.9810    -2.3380    -1.1720 ha         1 49K       0.132500
     22 H4           0.3740    -0.5220    -1.5480 ha         1 49K       0.119500
     23 H5           1.3580     3.4560     0.3850 hn         1 49K       0.370000
     24 H6          -2.4650     3.6000    -0.8650 h4         1 49K       0.036100
     25 H7          -3.0210     1.0530    -1.2720 h1         1 49K       0.035200
     26 H8          -1.6440     0.2460    -1.9890 h1         1 49K       0.035200
     27 H10         -3.7610     0.2540     1.0160 h1         1 49K       0.031700
     28 H11         -2.6090    -0.7350     1.9290 h1         1 49K       0.031700
     29 H12         -2.2140     0.9300     1.5480 h1         1 49K       0.031700
     30 H13         -3.6530    -1.5570    -0.8020 h1         1 49K       0.035200
     31 H14         -2.0820    -1.8100    -1.5550 h1         1 49K       0.035200
     32 H15         -1.2540    -2.7970     0.6150 h1         1 49K       0.036700
     33 H16         -2.9090    -2.7720     1.2100 h1         1 49K       0.036700
     34 H17         -2.0200    -4.2330    -1.1410 hn         1 49K       0.393500
     35 H18         -2.6190    -4.8370     0.2290 hn         1 49K       0.393500
@<TRIPOS>BOND
     1     1     2 ar  
     2     1     7 ar  
     3     1    19 1   
     4     2     3 ar  
     5     2    20 1   
     6     3     4 1   
     7     3     5 ar  
     8     5     6 ar  
     9     5    21 1   
    10     6     7 ar  
    11     6    22 1   
    12     7     8 1   
    13     8     9 1   
    14     8    12 2   
    15     9    10 1   
    16     9    23 1   
    17    10    11 2   
    18    11    12 1   
    19    11    24 1   
    20    12    13 1   
    21    13    14 1   
    22    13    25 1   
    23    13    26 1   
    24    14    15 1   
    25    14    16 1   
    26    15    27 1   
    27    15    28 1   
    28    15    29 1   
    29    16    17 1   
    30    16    30 1   
    31    16    31 1   
    32    17    18 1   
    33    17    32 1   
    34    17    33 1   
    35    18    34 1   
    36    18    35 1   
@<TRIPOS>SUBSTRUCTURE
     1 49K         1 TEMP              0 ****  ****    0 ROOT
