@<TRIPOS>MOLECULE
49K
   35    36     1     0     0
SMALL
No Charge or Current Charge


@<TRIPOS>ATOM
      1 CAM          1.9500     0.7780     1.1260 ca         1 49K      -0.060500
      2 CAN          2.8310    -0.2930     1.3600 ca         1 49K      -0.155000
      3 CAO          2.9100    -1.3460     0.4370 ca         1 49K       0.177000
      4 FAP          3.7570    -2.3750     0.6610 f          1 49K      -0.178000
      5 CAQ          2.1190    -1.3320    -0.7200 ca         1 49K      -0.155000
      6 CAR          1.2380    -0.2610    -0.9540 ca         1 49K      -0.060500
      7 CAL          1.1370     0.7990    -0.0270 ca         1 49K      -0.029000
      8 CAK          0.2310     1.9280    -0.2540 cc         1 49K      -0.073000
      9 NAJ          0.4410     3.2690     0.0450 na         1 49K      -0.001200
     10 NAI         -0.6630     4.0610    -0.2240 nc         1 49K      -0.514800
     11 CAH         -1.5520     3.1810    -0.6540 cd         1 49K       0.239900
     12 CAG         -1.0720     1.8500    -0.6800 cd         1 49K      -0.189300
     13 CAF         -1.9050     0.6520    -1.0720 c3         1 49K       0.257100
     14 NAB         -1.9380    -0.4190    -0.0480 n3         1 49K      -0.733600
     15 CAA         -2.5230     0.0370     1.2380 c3         1 49K       0.156100
     16 CAC         -2.5490    -1.6730    -0.5690 c3         1 49K       0.170800
     17 CAD         -2.3880    -2.9250     0.3460 c3         1 49K       0.145800
     18 NAE         -2.9070    -4.1750    -0.2690 n8         1 49K      -1.002200
     19 H1           1.8890     1.5860     1.8510 ha         1 49K       0.119500
     20 H2           3.4490    -0.3080     2.2540 ha         1 49K       0.132500
     21 H3           2.1920    -2.1460    -1.4360 ha         1 49K       0.132500
     22 H4           0.6450    -0.2520    -1.8630 ha         1 49K       0.119500
     23 H5           1.3030     3.6700     0.4090 hn         1 49K       0.370000
     24 H6          -2.5420     3.5270    -0.9240 h4         1 49K       0.036100
     25 H7          -2.9290     0.9930    -1.2820 h1         1 49K       0.035200
     26 H8          -1.5100     0.2610    -2.0190 h1         1 49K       0.035200
     27 H10         -3.5880     0.2770     1.1190 h1         1 49K       0.031700
     28 H11         -2.4270    -0.7340     2.0130 h1         1 49K       0.031700
     29 H12         -2.0090     0.9330     1.6100 h1         1 49K       0.031700
     30 H13         -3.6190    -1.5120    -0.7570 h1         1 49K       0.035200
     31 H14         -2.0890    -1.9160    -1.5370 h1         1 49K       0.035200
     32 H15         -1.3230    -3.0660     0.5770 h1         1 49K       0.036700
     33 H16         -2.9240    -2.7620     1.2900 h1         1 49K       0.036700
     34 H17         -2.3460    -4.3950    -1.1020 hn         1 49K       0.393500
     35 H18         -2.7160    -4.9620     0.3630 hn         1 49K       0.393500
@<TRIPOS>BOND
     1     1     2 ar  
     2     1     7 ar  
     3     1    19 1   
     4     2     3 ar  
     5     2    20 1   
     6     3     4 1   
     7     3     5 ar  
     8     5     6 ar  
     9     5    21 1   
    10     6     7 ar  
    11     6    22 1   
    12     7     8 1   
    13     8     9 1   
    14     8    12 2   
    15     9    10 1   
    16     9    23 1   
    17    10    11 2   
    18    11    12 1   
    19    11    24 1   
    20    12    13 1   
    21    13    14 1   
    22    13    25 1   
    23    13    26 1   
    24    14    15 1   
    25    14    16 1   
    26    15    27 1   
    27    15    28 1   
    28    15    29 1   
    29    16    17 1   
    30    16    30 1   
    31    16    31 1   
    32    17    18 1   
    33    17    32 1   
    34    17    33 1   
    35    18    34 1   
    36    18    35 1   
@<TRIPOS>SUBSTRUCTURE
     1 49K         1 TEMP              0 ****  ****    0 ROOT
