@<TRIPOS>MOLECULE
49L
   70    73     1     0     0
SMALL
No Charge or Current Charge


@<TRIPOS>ATOM
      1 C1          -5.3470     3.8960    -0.5840 c3         1 49L       0.153800
      2 O1           4.2630    -1.2790    -0.3230 os         1 49L      -0.449000
      3 C2          -5.8800     2.7180     0.2840 c3         1 49L       0.162800
      4 N2          -6.5400    -3.0610    -0.8670 na         1 49L       0.000800
      5 C3          -6.8560     1.3760    -1.5660 c3         1 49L       0.152100
      6 C4          -6.2130     0.2960     0.5680 c3         1 49L       0.252100
      7 C5          -6.0790    -1.0910    -0.0130 cc         1 49L      -0.189300
      8 C6          -7.0980    -1.8270    -0.5480 cd         1 49L      -0.173000
      9 C7          -4.9280    -1.9360    -0.0160 cc         1 49L       0.333500
     10 C8          -3.5400    -1.6280     0.4170 ca         1 49L      -0.160500
     11 N1          -5.9420     1.3930    -0.3960 n3         1 49L      -0.725600
     12 N           -5.1930     5.1400     0.2110 n7         1 49L      -0.862400
     13 C           -4.7160     6.3110    -0.5490 c3         1 49L       0.146100
     14 N3          -5.1950    -3.1270    -0.5340 nd         1 49L      -0.525800
     15 C24         -3.0490    -0.3090     0.5730 ca         1 49L      -0.053000
     16 C23         -1.7190    -0.0690     0.9590 ca         1 49L      -0.182500
     17 C11         -0.8360    -1.1320     1.1810 ca         1 49L       0.147100
     18 C10         -1.2920    -2.4500     1.0040 ca         1 49L      -0.182500
     19 C9          -2.6220    -2.6910     0.6160 ca         1 49L      -0.053000
     20 O            0.4570    -0.8320     1.5590 os         1 49L      -0.342100
     21 C12          1.4960    -1.8200     1.6250 cy         1 49L       0.153300
     22 C15          2.0340    -2.3320     0.2450 cy         1 49L      -0.116900
     23 C14          2.9850    -1.0960     0.2880 cy         1 49L       0.157300
     24 C13          2.9320    -1.2420     1.8440 cy         1 49L      -0.116900
     25 C17          6.5310    -0.6540    -0.8330 c3         1 49L      -0.076400
     26 C18          7.6870     0.3890    -0.7570 c6         1 49L      -0.058700
     27 C22          8.8800    -0.0290    -1.6610 c6         1 49L      -0.111400
     28 C21         10.0510     0.9750    -1.5340 c6         1 49L       0.155100
     29 O2          10.4440     1.0970    -0.1500 os         1 49L      -0.450000
     30 C20          9.3980     1.5980     0.7100 c6         1 49L       0.155100
     31 C19          8.1910     0.6290     0.6960 c6         1 49L      -0.111400
     32 H1          -4.3810     3.6020    -1.0160 h1         1 49L       0.037200
     33 H2          -6.0430     4.0720    -1.4150 h1         1 49L       0.037200
     34 H3          -5.2200     2.6360     1.1590 h1         1 49L       0.036700
     35 H4          -6.8760     2.9870     0.6620 h1         1 49L       0.036700
     36 H5          -7.0250    -3.8530    -1.2890 hn         1 49L       0.372000
     37 H6          -6.5820     2.1460    -2.2970 h1         1 49L       0.031367
     38 H7          -6.8120     0.4120    -2.0890 h1         1 49L       0.031367
     39 H8          -7.8950     1.5500    -1.2540 h1         1 49L       0.031367
     40 H9          -7.2350     0.4010     0.9590 h1         1 49L       0.037700
     41 H10         -5.5520     0.3720     1.4410 h1         1 49L       0.037700
     42 H11         -8.1440    -1.5880    -0.7080 h4         1 49L       0.152000
     43 H13         -4.5210     4.9550     0.9670 hn         1 49L       0.404000
     44 H15         -4.6360     7.1900     0.1060 h1         1 49L       0.029033
     45 H16         -3.7250     6.1190    -0.9840 h1         1 49L       0.029033
     46 H17         -5.4080     6.5570    -1.3650 h1         1 49L       0.029033
     47 H18         -3.6650     0.5540     0.3630 ha         1 49L       0.134000
     48 H19         -1.3670     0.9530     1.0730 ha         1 49L       0.119500
     49 H20         -0.6350    -3.3000     1.1610 ha         1 49L       0.119500
     50 H21         -2.9390    -3.7250     0.4910 ha         1 49L       0.134000
     51 H22          1.2210    -2.6060     2.3380 h1         1 49L       0.064700
     52 H23          2.5440    -3.3010     0.2900 hc         1 49L       0.070200
     53 H24          1.3140    -2.3510    -0.5790 hc         1 49L       0.070200
     54 H25          2.5160    -0.1750    -0.0820 h1         1 49L       0.051700
     55 H26          2.9930    -0.3100     2.4140 hc         1 49L       0.070200
     56 H27          3.6500    -1.9580     2.2590 hc         1 49L       0.070200
     57 H28          4.8920     0.7140    -0.4300 h1         1 49L       0.022700
     58 H29          5.4580    -0.1860     1.0010 h1         1 49L       0.022700
     59 H30          6.8790    -1.6220    -0.4510 hc         1 49L       0.053700
     60 H31          6.2630    -0.8170    -1.8840 hc         1 49L       0.053700
     61 H32          7.2800     1.3340    -1.1440 hc         1 49L       0.045700
     62 H33          9.2320    -1.0320    -1.3840 hc         1 49L       0.050200
     63 H34          8.5600    -0.0880    -2.7100 hc         1 49L       0.050200
     64 H35         10.9120     0.6260    -2.1210 h1         1 49L       0.042950
     65 H36          9.7520     1.9630    -1.9160 h1         1 49L       0.042950
     66 H37          9.7910     1.6950     1.7320 h1         1 49L       0.042950
     67 H38          9.0910     2.5970     0.3650 h1         1 49L       0.042950
     68 H39          7.3900     1.0480     1.3190 hc         1 49L       0.050200
     69 H40          8.4840    -0.3240     1.1580 hc         1 49L       0.050200
     70 C16          5.2470    -0.2620    -0.0730 c3         1 49L       0.163600
@<TRIPOS>BOND
     1     1     3 1   
     2     1    12 1   
     3     1    32 1   
     4     1    33 1   
     5     2    23 1   
     6     2    70 1   
     7     3    11 1   
     8     3    34 1   
     9     3    35 1   
    10     4     8 1   
    11     4    14 1   
    12     4    36 1   
    13     5    11 1   
    14     5    37 1   
    15     5    38 1   
    16     5    39 1   
    17     6     7 1   
    18     6    11 1   
    19     6    40 1   
    20     6    41 1   
    21     7     8 2   
    22     7     9 1   
    23     8    42 1   
    24     9    10 1   
    25     9    14 2   
    26    10    15 ar  
    27    10    19 ar  
    28    12    13 1   
    29    12    43 1   
    30    13    44 1   
    31    13    45 1   
    32    13    46 1   
    33    15    16 ar  
    34    15    47 1   
    35    16    17 ar  
    36    16    48 1   
    37    17    18 ar  
    38    17    20 1   
    39    18    19 ar  
    40    18    49 1   
    41    19    50 1   
    42    20    21 1   
    43    21    22 1   
    44    21    24 1   
    45    21    51 1   
    46    22    23 1   
    47    22    52 1   
    48    22    53 1   
    49    23    24 1   
    50    23    54 1   
    51    24    55 1   
    52    24    56 1   
    53    25    26 1   
    54    25    59 1   
    55    25    60 1   
    56    25    70 1   
    57    26    27 1   
    58    26    31 1   
    59    26    61 1   
    60    27    28 1   
    61    27    62 1   
    62    27    63 1   
    63    28    29 1   
    64    28    64 1   
    65    28    65 1   
    66    29    30 1   
    67    30    31 1   
    68    30    66 1   
    69    30    67 1   
    70    31    68 1   
    71    31    69 1   
    72    57    70 1   
    73    58    70 1   
@<TRIPOS>SUBSTRUCTURE
     1 49L         1 TEMP              0 ****  ****    0 ROOT
