@<TRIPOS>MOLECULE
49L
   70    73     1     0     0
SMALL
abcg2


@<TRIPOS>ATOM
      1 C1          -5.3420     3.6750    -0.0940 c3         1 49L       0.153800
      2 O1           4.3870    -1.4000    -0.0650 os         1 49L      -0.449000
      3 C2          -6.0300     2.4990     0.5850 c3         1 49L       0.162800
      4 N2          -6.3900    -3.0740    -1.1720 na         1 49L       0.000800
      5 C3          -6.9680     1.4100    -1.3460 c3         1 49L       0.152100
      6 C4          -6.3100     0.1160     0.5690 c3         1 49L       0.252100
      7 C5          -6.0750    -1.1680    -0.1570 cc         1 49L      -0.189300
      8 C6          -7.0350    -2.0140    -0.6640 cd         1 49L      -0.173000
      9 C7          -4.8530    -1.8410    -0.4200 cc         1 49L       0.333500
     10 C8          -3.4860    -1.4480    -0.0610 ca         1 49L      -0.160500
     11 N1          -6.0450     1.3020    -0.2360 n3         1 49L      -0.725600
     12 N           -5.2710     4.8030     0.8130 n7         1 49L      -0.862400
     13 C           -4.6590     5.9680     0.2090 c3         1 49L       0.146100
     14 N3          -5.0750    -2.9930    -1.0370 nd         1 49L      -0.525800
     15 C24         -3.0970    -0.1060    -0.0140 ca         1 49L      -0.053000
     16 C23         -1.8060     0.2520     0.3240 ca         1 49L      -0.182500
     17 C11         -0.8550    -0.7250     0.6240 ca         1 49L       0.147100
     18 C10         -1.2260    -2.0680     0.5760 ca         1 49L      -0.182500
     19 C9          -2.5260    -2.4130     0.2360 ca         1 49L      -0.053000
     20 O            0.3740    -0.2830     0.9580 os         1 49L      -0.342100
     21 C12          1.3530    -1.2280     1.3510 cy         1 49L       0.153300
     22 C15          2.0000    -1.9760     0.1680 cy         1 49L      -0.116900
     23 C14          3.1000    -0.9100     0.1490 cy         1 49L       0.157300
     24 C13          2.6840    -0.5020     1.5790 cy         1 49L      -0.116900
     25 C17          6.7350    -1.0280    -0.2610 c3         1 49L      -0.076400
     26 C18          7.8230    -0.0380    -0.6660 c6         1 49L      -0.058700
     27 C22          9.1720    -0.7370    -0.8310 c6         1 49L      -0.111400
     28 C21         10.2630     0.2620    -1.1770 c6         1 49L       0.155100
     29 O2          10.3590     1.2920    -0.2160 os         1 49L      -0.450000
     30 C20          9.1510     2.0120    -0.0920 c6         1 49L       0.155100
     31 C19          7.9880     1.1220     0.3170 c6         1 49L      -0.111400
     32 H1          -4.3540     3.3460    -0.4550 h1         1 49L       0.037200
     33 H2          -5.9030     3.9920    -0.9780 h1         1 49L       0.037200
     34 H3          -5.4760     2.2690     1.5010 h1         1 49L       0.036700
     35 H4          -7.0430     2.8000     0.9010 h1         1 49L       0.036700
     36 H5          -6.7990    -3.8730    -1.6290 hn         1 49L       0.372000
     37 H6          -6.7140     2.2590    -1.9790 h1         1 49L       0.031367
     38 H7          -6.9120     0.5180    -1.9700 h1         1 49L       0.031367
     39 H8          -8.0130     1.5310    -1.0210 h1         1 49L       0.031367
     40 H9          -7.3400     0.1190     0.9620 h1         1 49L       0.037700
     41 H10         -5.6490     0.1500     1.4400 h1         1 49L       0.037700
     42 H11         -8.1100    -1.9310    -0.6870 h4         1 49L       0.152000
     43 H13         -4.7290     4.5340     1.6260 hn         1 49L       0.404000
     44 H15         -4.5930     6.7740     0.9400 h1         1 49L       0.029033
     45 H16         -3.6500     5.7920    -0.1900 h1         1 49L       0.029033
     46 H17         -5.2770     6.3240    -0.6180 h1         1 49L       0.029033
     47 H18         -3.8190     0.6650    -0.2570 ha         1 49L       0.134000
     48 H19         -1.5220     1.2970     0.3560 ha         1 49L       0.119500
     49 H20         -0.5210    -2.8570     0.8000 ha         1 49L       0.119500
     50 H21         -2.7950    -3.4610     0.2130 ha         1 49L       0.134000
     51 H22          0.9750    -1.8390     2.1770 h1         1 49L       0.064700
     52 H23          2.3900    -2.9410     0.4980 hc         1 49L       0.070200
     53 H24          1.4110    -2.1210    -0.7380 hc         1 49L       0.070200
     54 H25          2.8650    -0.1100    -0.5650 h1         1 49L       0.051700
     55 H26          2.6390     0.5560     1.8360 hc         1 49L       0.070200
     56 H27          3.2790    -1.0280     2.3270 hc         1 49L       0.070200
     57 H28          5.1770     0.2770    -0.9820 h1         1 49L       0.022700
     58 H29          5.3250     0.2420     0.7750 h1         1 49L       0.022700
     59 H30          7.0120    -1.5130     0.6810 hc         1 49L       0.053700
     60 H31          6.6790    -1.8150    -1.0200 hc         1 49L       0.053700
     61 H32          7.5460     0.3870    -1.6410 hc         1 49L       0.045700
     62 H33          9.4330    -1.2550     0.0980 hc         1 49L       0.050200
     63 H34          9.1170    -1.4970    -1.6150 hc         1 49L       0.050200
     64 H35         11.2390    -0.2260    -1.2180 h1         1 49L       0.042950
     65 H36         10.0680     0.6890    -2.1720 h1         1 49L       0.042950
     66 H37          9.3210     2.7940     0.6500 h1         1 49L       0.042950
     67 H38          8.9070     2.5090    -1.0430 h1         1 49L       0.042950
     68 H39          7.0840     1.7360     0.3590 hc         1 49L       0.050200
     69 H40          8.1560     0.7300     1.3260 hc         1 49L       0.050200
     70 C16          5.3670    -0.3860    -0.1240 c3         1 49L       0.163600
@<TRIPOS>BOND
     1     1     3 1   
     2     1    12 1   
     3     1    32 1   
     4     1    33 1   
     5     2    23 1   
     6     2    70 1   
     7     3    11 1   
     8     3    34 1   
     9     3    35 1   
    10     4     8 1   
    11     4    14 1   
    12     4    36 1   
    13     5    11 1   
    14     5    37 1   
    15     5    38 1   
    16     5    39 1   
    17     6     7 1   
    18     6    11 1   
    19     6    40 1   
    20     6    41 1   
    21     7     8 2   
    22     7     9 1   
    23     8    42 1   
    24     9    10 1   
    25     9    14 2   
    26    10    15 ar  
    27    10    19 ar  
    28    12    13 1   
    29    12    43 1   
    30    13    44 1   
    31    13    45 1   
    32    13    46 1   
    33    15    16 ar  
    34    15    47 1   
    35    16    17 ar  
    36    16    48 1   
    37    17    18 ar  
    38    17    20 1   
    39    18    19 ar  
    40    18    49 1   
    41    19    50 1   
    42    20    21 1   
    43    21    22 1   
    44    21    24 1   
    45    21    51 1   
    46    22    23 1   
    47    22    52 1   
    48    22    53 1   
    49    23    24 1   
    50    23    54 1   
    51    24    55 1   
    52    24    56 1   
    53    25    26 1   
    54    25    59 1   
    55    25    60 1   
    56    25    70 1   
    57    26    27 1   
    58    26    31 1   
    59    26    61 1   
    60    27    28 1   
    61    27    62 1   
    62    27    63 1   
    63    28    29 1   
    64    28    64 1   
    65    28    65 1   
    66    29    30 1   
    67    30    31 1   
    68    30    66 1   
    69    30    67 1   
    70    31    68 1   
    71    31    69 1   
    72    57    70 1   
    73    58    70 1   
@<TRIPOS>SUBSTRUCTURE
     1 49L         1 TEMP              0 ****  ****    0 ROOT
