@<TRIPOS>MOLECULE
49M
  168   168     1     0     0
SMALL
No Charge or Current Charge


@<TRIPOS>ATOM
      1 C6          11.1480    -0.5580    -0.3190 c3         1 49M      -0.074400
      2 C2           6.0220     0.2840     0.1260 c3         1 49M       0.121900
      3 C4           8.5870    -0.1520    -0.1260 c3         1 49M       0.133300
      4 C5           9.7710    -1.1310     0.1000 c3         1 49M      -0.104400
      5 C9          14.8600    -1.9190    -0.1500 c3         1 49M      -0.074400
      6 C10         16.2340    -1.3460    -0.5640 c3         1 49M      -0.073400
      7 C11         17.4040    -2.3110    -0.2720 c3         1 49M      -0.074400
      8 C12         18.7770    -1.7380    -0.6850 c3         1 49M      -0.074400
      9 C13         19.9470    -2.7030    -0.3930 c3         1 49M      -0.074400
     10 C14         21.3210    -2.1300    -0.8050 c3         1 49M      -0.074400
     11 C16         23.8640    -2.5210    -0.9250 c3         1 49M      -0.075400
     12 C17         25.0350    -3.4850    -0.6310 c3         1 49M      -0.075400
     13 C19        -29.3860    -0.3500    -0.6960 c3         1 49M      -0.075400
     14 OAA          4.4340    -1.8930    -0.8680 o          1 49M      -0.600100
     15 N2           4.7460    -0.2160     0.6430 ns         1 49M      -0.509900
     16 C3           7.2160    -0.6880     0.4120 c3         1 49M       0.129300
     17 O3           7.3030    -0.9660     1.8280 oh         1 49M      -0.662000
     18 O4           8.4890     0.1340    -1.5330 oh         1 49M      -0.654000
     19 C7          12.3170    -1.5250    -0.0280 c3         1 49M      -0.075400
     20 C8          13.6910    -0.9530    -0.4420 c3         1 49M      -0.073400
     21 C15         22.4910    -3.0940    -0.5120 c3         1 49M      -0.074400
     22 C18         26.4050    -2.9130    -1.0430 c3         1 49M      -0.088100
     23 C1           6.2400     1.6770     0.6840 c2         1 49M      -0.225200
     24 C1B          6.3330     2.8000    -0.0500 c2         1 49M      -0.218200
     25 C1A          6.6320     4.1710     0.5540 c6         1 49M       0.175500
     26 C2A          6.7630     5.3250    -0.4990 c6         1 49M       0.109300
     27 O2A          5.6160     5.4070    -1.3780 oh         1 49M      -0.719000
     28 C3A          8.0700     5.1590    -1.3400 c6         1 49M       0.139300
     29 O3A          8.2240     6.2870    -2.2210 oh         1 49M      -0.673000
     30 C4A          9.3210     5.0070    -0.4230 c6         1 49M       0.147300
     31 O4A          9.5940     6.2700     0.2190 oh         1 49M      -0.715000
     32 C5M          9.0530     3.8520     0.5950 c6         1 49M       0.163300
     33 C6A         10.2370     3.6280     1.5910 c3         1 49M       0.171600
     34 O5A         10.0260     2.5130     2.4830 oh         1 49M      -0.722000
     35 O6A          7.8360     4.1050     1.3550 os         1 49M      -0.425000
     36 CAB          2.7660    -1.6490     0.8690 c3         1 49M      -0.157400
     37 CAC          1.5030    -1.2220     0.0840 c3         1 49M      -0.063400
     38 CAD          0.1900    -1.5760     0.8150 c3         1 49M      -0.077400
     39 CAE         -1.0710    -1.1500     0.0310 c3         1 49M      -0.073400
     40 CAF         -2.3850    -1.5040     0.7610 c3         1 49M      -0.075400
     41 CAG         -3.6450    -1.0780    -0.0230 c3         1 49M      -0.073400
     42 CAH         -4.9600    -1.4320     0.7050 c3         1 49M      -0.074400
     43 CAI         -6.2200    -1.0050    -0.0800 c3         1 49M      -0.073400
     44 CAJ         -7.5350    -1.3600     0.6470 c3         1 49M      -0.075400
     45 CAK         -8.7940    -0.9320    -0.1390 c3         1 49M      -0.073400
     46 CAL        -10.1100    -1.2870     0.5870 c3         1 49M      -0.075400
     47 CAM        -11.3680    -0.8580    -0.2000 c3         1 49M      -0.073400
     48 CAN        -12.6850    -1.2140     0.5230 c3         1 49M      -0.075400
     49 CAO        -13.9420    -0.7840    -0.2650 c3         1 49M      -0.073400
     50 CAP        -15.2600    -1.1410     0.4570 c3         1 49M      -0.074400
     51 CAQ        -16.5160    -0.7100    -0.3310 c3         1 49M      -0.074400
     52 CAR        -17.8340    -1.0680     0.3890 c3         1 49M      -0.074400
     53 CAS        -19.0900    -0.6370    -0.4010 c3         1 49M      -0.074400
     54 CAT        -20.4090    -0.9960     0.3180 c3         1 49M      -0.074400
     55 CAU        -21.6640    -0.5650    -0.4730 c3         1 49M      -0.074400
     56 CAV        -22.9830    -0.9240     0.2450 c3         1 49M      -0.074400
     57 CAW        -24.2380    -0.4930    -0.5460 c3         1 49M      -0.074400
     58 CAX        -25.5580    -0.8520     0.1710 c3         1 49M      -0.074400
     59 CAY        -26.8120    -0.4210    -0.6210 c3         1 49M      -0.074400
     60 CAZ        -28.1320    -0.7810     0.0960 c3         1 49M      -0.074400
     61 C20        -30.7060    -0.7090     0.0210 c3         1 49M      -0.074400
     62 C21        -31.9580    -0.2800    -0.7690 c3         1 49M      -0.088100
     63 H1          11.1410    -0.3230    -1.3900 hc         1 49M       0.047700
     64 H2          11.3210     0.3850     0.2140 hc         1 49M       0.047700
     65 H3           5.9200     0.3630    -0.9660 h1         1 49M       0.096700
     66 H4           8.8150     0.7720     0.4230 h1         1 49M       0.092700
     67 H5           9.5830    -2.0660    -0.4420 hc         1 49M       0.048200
     68 H6           9.8220    -1.3920     1.1630 hc         1 49M       0.048200
     69 H7          14.6890    -2.8630    -0.6820 hc         1 49M       0.037200
     70 H8          14.8760    -2.1520     0.9220 hc         1 49M       0.037200
     71 H9          16.2190    -1.1130    -1.6360 hc         1 49M       0.037200
     72 H10         16.4050    -0.4020    -0.0330 hc         1 49M       0.037200
     73 H11         17.4190    -2.5450     0.8000 hc         1 49M       0.037200
     74 H12         17.2330    -3.2560    -0.8040 hc         1 49M       0.037200
     75 H13         18.7620    -1.5050    -1.7570 hc         1 49M       0.037200
     76 H14         18.9480    -0.7940    -0.1540 hc         1 49M       0.037200
     77 H15         19.9620    -2.9370     0.6790 hc         1 49M       0.036700
     78 H16         19.7770    -3.6480    -0.9240 hc         1 49M       0.036700
     79 H17         21.3060    -1.8970    -1.8780 hc         1 49M       0.036700
     80 H18         21.4910    -1.1850    -0.2740 hc         1 49M       0.036700
     81 H19         24.0350    -1.5760    -0.3930 hc         1 49M       0.036700
     82 H20         23.8500    -2.2870    -1.9970 hc         1 49M       0.036700
     83 H21         25.0540    -3.7190     0.4400 hc         1 49M       0.036700
     84 H22         24.8690    -4.4300    -1.1630 hc         1 49M       0.036700
     85 H23        -29.3510     0.7340    -0.8640 hc         1 49M       0.036700
     86 H24        -29.3710    -0.8280    -1.6830 hc         1 49M       0.036700
     87 H25          4.3520     0.2270     1.4620 hn         1 49M       0.320500
     88 H26          7.0060    -1.6260    -0.1200 h1         1 49M       0.074700
     89 H27          7.5070    -0.1180     2.2780 ho         1 49M       0.451000
     90 H28          8.5830    -0.7170    -2.0110 ho         1 49M       0.441000
     91 H29         12.3330    -1.7590     1.0440 hc         1 49M       0.036700
     92 H30         12.1450    -2.4690    -0.5600 hc         1 49M       0.036700
     93 H31         13.8630    -0.0090     0.0890 hc         1 49M       0.036700
     94 H32         13.6760    -0.7200    -1.5140 hc         1 49M       0.036700
     95 H33         22.5050    -3.3280     0.5600 hc         1 49M       0.036700
     96 H34         22.3210    -4.0390    -1.0440 hc         1 49M       0.036700
     97 H35         27.2030    -3.6310    -0.8160 hc         1 49M       0.031367
     98 H36         26.4300    -2.7010    -2.1180 hc         1 49M       0.031367
     99 H37         26.6160    -1.9830    -0.5000 hc         1 49M       0.031367
    100 H38          6.3580     1.7250     1.7680 ha         1 49M       0.168000
    101 H39          6.2220     2.7620    -1.1350 ha         1 49M       0.192000
    102 H40          5.8050     4.4270     1.2320 h1         1 49M       0.074700
    103 H41          6.8500     6.2640     0.0700 h1         1 49M       0.060700
    104 H42          4.8230     5.5730    -0.8140 ho         1 49M       0.513000
    105 H43          7.9780     4.2380    -1.9360 h1         1 49M       0.057700
    106 H44          7.3210     6.4440    -2.5840 ho         1 49M       0.469000
    107 H45         10.1760     4.7180    -1.0540 h1         1 49M       0.050700
    108 H46          9.3680     6.9410    -0.4710 ho         1 49M       0.521000
    109 H47          8.9320     2.9200     0.0270 h1         1 49M       0.060700
    110 H48         11.1510     3.4670     1.0020 h1         1 49M       0.037700
    111 H49         10.3800     4.5510     2.1690 h1         1 49M       0.037700
    112 H50         10.7460     2.5440     3.1550 ho         1 49M       0.504000
    113 H51          2.7410    -2.7360     1.0030 hc         1 49M       0.054700
    114 H52          2.7500    -1.1540     1.8480 hc         1 49M       0.054700
    115 H53          1.5380    -0.1390    -0.0930 hc         1 49M       0.055200
    116 H54          1.5100    -1.7060    -0.9010 hc         1 49M       0.055200
    117 H55          0.1560    -2.6580     0.9910 hc         1 49M       0.035200
    118 H56          0.1830    -1.0910     1.7990 hc         1 49M       0.035200
    119 H57         -1.0370    -0.0670    -0.1450 hc         1 49M       0.040200
    120 H58         -1.0640    -1.6350    -0.9530 hc         1 49M       0.040200
    121 H59         -2.4190    -2.5870     0.9360 hc         1 49M       0.036200
    122 H60         -2.3920    -1.0190     1.7450 hc         1 49M       0.036200
    123 H61         -3.6110     0.0050    -0.1980 hc         1 49M       0.038200
    124 H62         -3.6380    -1.5620    -1.0080 hc         1 49M       0.038200
    125 H63         -4.9950    -2.5150     0.8800 hc         1 49M       0.036700
    126 H64         -4.9680    -0.9480     1.6900 hc         1 49M       0.036700
    127 H65         -6.1850     0.0780    -0.2540 hc         1 49M       0.037700
    128 H66         -6.2110    -1.4880    -1.0650 hc         1 49M       0.037700
    129 H67         -7.5700    -2.4430     0.8210 hc         1 49M       0.036700
    130 H68         -7.5440    -0.8770     1.6330 hc         1 49M       0.036700
    131 H69         -8.7590     0.1510    -0.3110 hc         1 49M       0.037700
    132 H70         -8.7840    -1.4140    -1.1240 hc         1 49M       0.037700
    133 H71        -10.1450    -2.3700     0.7590 hc         1 49M       0.036700
    134 H72        -10.1200    -0.8050     1.5720 hc         1 49M       0.036700
    135 H73        -11.3330     0.2250    -0.3720 hc         1 49M       0.037700
    136 H74        -11.3570    -1.3400    -1.1860 hc         1 49M       0.037700
    137 H75        -12.7200    -2.2980     0.6950 hc         1 49M       0.036700
    138 H76        -12.6960    -0.7330     1.5090 hc         1 49M       0.036700
    139 H77        -13.9070     0.2990    -0.4350 hc         1 49M       0.037700
    140 H78        -13.9300    -1.2650    -1.2510 hc         1 49M       0.037700
    141 H79        -15.2950    -2.2250     0.6280 hc         1 49M       0.036700
    142 H80        -15.2720    -0.6610     1.4440 hc         1 49M       0.036700
    143 H81        -16.4810     0.3730    -0.5010 hc         1 49M       0.037200
    144 H82        -16.5030    -1.1900    -1.3180 hc         1 49M       0.037200
    145 H83        -17.8700    -2.1520     0.5580 hc         1 49M       0.036700
    146 H84        -17.8470    -0.5890     1.3760 hc         1 49M       0.036700
    147 H85        -19.0550     0.4460    -0.5700 hc         1 49M       0.037700
    148 H86        -19.0760    -1.1160    -1.3880 hc         1 49M       0.037700
    149 H87        -20.4440    -2.0790     0.4870 hc         1 49M       0.036700
    150 H88        -20.4230    -0.5170     1.3050 hc         1 49M       0.036700
    151 H89        -21.6290     0.5190    -0.6410 hc         1 49M       0.036700
    152 H90        -21.6490    -1.0430    -1.4600 hc         1 49M       0.036700
    153 H91        -23.0180    -2.0080     0.4130 hc         1 49M       0.036700
    154 H92        -22.9980    -0.4460     1.2320 hc         1 49M       0.036700
    155 H93        -24.2030     0.5910    -0.7140 hc         1 49M       0.037200
    156 H94        -24.2230    -0.9710    -1.5340 hc         1 49M       0.037200
    157 H95        -25.5930    -1.9360     0.3390 hc         1 49M       0.036700
    158 H96        -25.5730    -0.3740     1.1580 hc         1 49M       0.036700
    159 H97        -26.7770     0.6620    -0.7890 hc         1 49M       0.036700
    160 H98        -26.7970    -0.9000    -1.6080 hc         1 49M       0.036700
    161 H99        -28.1470    -0.3020     1.0830 hc         1 49M       0.036700
    162 H100       -28.1670    -1.8640     0.2640 hc         1 49M       0.036700
    163 H101       -30.7460    -1.7920     0.1890 hc         1 49M       0.036700
    164 H102       -30.7260    -0.2310     1.0080 hc         1 49M       0.036700
    165 H103       -32.8680    -0.5550    -0.2220 hc         1 49M       0.031367
    166 H104       -31.9660     0.8060    -0.9230 hc         1 49M       0.031367
    167 H105       -31.9850    -0.7700    -1.7500 hc         1 49M       0.031367
    168 CAA          4.0480    -1.2780     0.1160 c          1 49M       0.600100
@<TRIPOS>BOND
     1     1     4 1   
     2     1    19 1   
     3     1    63 1   
     4     1    64 1   
     5     2    15 1   
     6     2    16 1   
     7     2    23 1   
     8     2    65 1   
     9     3     4 1   
    10     3    16 1   
    11     3    18 1   
    12     3    66 1   
    13     4    67 1   
    14     4    68 1   
    15     5     6 1   
    16     5    20 1   
    17     5    69 1   
    18     5    70 1   
    19     6     7 1   
    20     6    71 1   
    21     6    72 1   
    22     7     8 1   
    23     7    73 1   
    24     7    74 1   
    25     8     9 1   
    26     8    75 1   
    27     8    76 1   
    28     9    10 1   
    29     9    77 1   
    30     9    78 1   
    31    10    21 1   
    32    10    79 1   
    33    10    80 1   
    34    11    12 1   
    35    11    21 1   
    36    11    81 1   
    37    11    82 1   
    38    12    22 1   
    39    12    83 1   
    40    12    84 1   
    41    13    60 1   
    42    13    61 1   
    43    13    85 1   
    44    13    86 1   
    45    14   168 2   
    46    15    87 1   
    47    15   168 1   
    48    16    17 1   
    49    16    88 1   
    50    17    89 1   
    51    18    90 1   
    52    19    20 1   
    53    19    91 1   
    54    19    92 1   
    55    20    93 1   
    56    20    94 1   
    57    21    95 1   
    58    21    96 1   
    59    22    97 1   
    60    22    98 1   
    61    22    99 1   
    62    23    24 2   
    63    23   100 1   
    64    24    25 1   
    65    24   101 1   
    66    25    26 1   
    67    25    35 1   
    68    25   102 1   
    69    26    27 1   
    70    26    28 1   
    71    26   103 1   
    72    27   104 1   
    73    28    29 1   
    74    28    30 1   
    75    28   105 1   
    76    29   106 1   
    77    30    31 1   
    78    30    32 1   
    79    30   107 1   
    80    31   108 1   
    81    32    33 1   
    82    32    35 1   
    83    32   109 1   
    84    33    34 1   
    85    33   110 1   
    86    33   111 1   
    87    34   112 1   
    88    36    37 1   
    89    36   113 1   
    90    36   114 1   
    91    36   168 1   
    92    37    38 1   
    93    37   115 1   
    94    37   116 1   
    95    38    39 1   
    96    38   117 1   
    97    38   118 1   
    98    39    40 1   
    99    39   119 1   
   100    39   120 1   
   101    40    41 1   
   102    40   121 1   
   103    40   122 1   
   104    41    42 1   
   105    41   123 1   
   106    41   124 1   
   107    42    43 1   
   108    42   125 1   
   109    42   126 1   
   110    43    44 1   
   111    43   127 1   
   112    43   128 1   
   113    44    45 1   
   114    44   129 1   
   115    44   130 1   
   116    45    46 1   
   117    45   131 1   
   118    45   132 1   
   119    46    47 1   
   120    46   133 1   
   121    46   134 1   
   122    47    48 1   
   123    47   135 1   
   124    47   136 1   
   125    48    49 1   
   126    48   137 1   
   127    48   138 1   
   128    49    50 1   
   129    49   139 1   
   130    49   140 1   
   131    50    51 1   
   132    50   141 1   
   133    50   142 1   
   134    51    52 1   
   135    51   143 1   
   136    51   144 1   
   137    52    53 1   
   138    52   145 1   
   139    52   146 1   
   140    53    54 1   
   141    53   147 1   
   142    53   148 1   
   143    54    55 1   
   144    54   149 1   
   145    54   150 1   
   146    55    56 1   
   147    55   151 1   
   148    55   152 1   
   149    56    57 1   
   150    56   153 1   
   151    56   154 1   
   152    57    58 1   
   153    57   155 1   
   154    57   156 1   
   155    58    59 1   
   156    58   157 1   
   157    58   158 1   
   158    59    60 1   
   159    59   159 1   
   160    59   160 1   
   161    60   161 1   
   162    60   162 1   
   163    61    62 1   
   164    61   163 1   
   165    61   164 1   
   166    62   165 1   
   167    62   166 1   
   168    62   167 1   
@<TRIPOS>SUBSTRUCTURE
     1 49M         1 TEMP              0 ****  ****    0 ROOT
