@<TRIPOS>MOLECULE
49M
  168   168     1     0     0
SMALL
bcc


@<TRIPOS>ATOM
      1 C6          11.0820    -0.3310    -0.1860 c3         1 49M      -0.074400
      2 C2           6.2210     1.2380    -0.0110 c3         1 49M       0.121900
      3 C4           8.6710     0.4920    -0.0780 c3         1 49M       0.110100
      4 C5           9.6360    -0.6630     0.1640 c3         1 49M      -0.104400
      5 C9          14.4280    -2.3290     0.1020 c3         1 49M      -0.074400
      6 C10         15.8790    -2.0430    -0.2610 c3         1 49M      -0.073400
      7 C11         16.8160    -3.2020     0.0580 c3         1 49M      -0.074400
      8 C12         18.2690    -2.9250    -0.3040 c3         1 49M      -0.074400
      9 C13         19.2000    -4.0880     0.0170 c3         1 49M      -0.074400
     10 C14         20.6540    -3.8150    -0.3420 c3         1 49M      -0.074400
     11 C16         23.0380    -4.7070    -0.3760 c3         1 49M      -0.075400
     12 C17         23.9670    -5.8720    -0.0560 c3         1 49M      -0.075400
     13 C19        -29.1290    -2.0080     0.3990 c3         1 49M      -0.075400
     14 OAA          3.8430     1.8850    -1.3740 o          1 49M      -0.600100
     15 N2           4.8870     0.7530     0.2740 ns         1 49M      -0.576900
     16 C3           7.2310     0.1210     0.3130 c3         1 49M       0.106100
     17 O3           7.1400    -0.2720     1.6650 oh         1 49M      -0.599800
     18 O4           8.7170     0.9500    -1.4140 oh         1 49M      -0.591800
     19 C7          12.0340    -1.4750     0.1410 c3         1 49M      -0.075400
     20 C8          13.4830    -1.1770    -0.2180 c3         1 49M      -0.073400
     21 C15         21.5830    -4.9800    -0.0210 c3         1 49M      -0.074400
     22 C18         25.4200    -5.5850    -0.4110 c3         1 49M      -0.088100
     23 C1           6.5250     2.4990     0.7460 c2         1 49M      -0.175200
     24 C1B          7.1390     3.5470     0.2100 c2         1 49M      -0.168200
     25 C1A          7.5750     4.7320     1.0280 c6         1 49M       0.152300
     26 C2A          7.5130     6.0570     0.2560 c6         1 49M       0.086100
     27 O2A          6.2800     6.2130    -0.4090 oh         1 49M      -0.596800
     28 C3A          8.6110     6.1160    -0.7980 c6         1 49M       0.116100
     29 O3A          8.6730     7.3740    -1.4270 oh         1 49M      -0.610800
     30 C4A          9.9720     5.8470    -0.1620 c6         1 49M       0.124100
     31 O4A         10.3470     6.8760     0.7220 oh         1 49M      -0.592800
     32 C5M          9.9060     4.5310     0.6040 c6         1 49M       0.140100
     33 C6A         11.2060     4.2120     1.3120 c3         1 49M       0.148400
     34 O5A         11.1360     2.9000     1.8170 oh         1 49M      -0.599800
     35 O6A          8.8740     4.5540     1.5670 os         1 49M      -0.378600
     36 CAB          2.5060     0.4820     0.0600 c3         1 49M      -0.157400
     37 CAC          1.2540     1.0180    -0.6140 c3         1 49M      -0.063400
     38 CAD         -0.0030     0.3260    -0.1000 c3         1 49M      -0.077400
     39 CAE         -1.2800     0.8290    -0.7600 c3         1 49M      -0.073400
     40 CAF         -2.5300     0.1300    -0.2400 c3         1 49M      -0.075400
     41 CAG         -3.8200     0.6200    -0.8860 c3         1 49M      -0.073400
     42 CAH         -5.0570    -0.0880    -0.3480 c3         1 49M      -0.074400
     43 CAI         -6.3610     0.3950    -0.9710 c3         1 49M      -0.073400
     44 CAJ         -7.5830    -0.3190    -0.4060 c3         1 49M      -0.075400
     45 CAK         -8.9050     0.1570    -0.9950 c3         1 49M      -0.073400
     46 CAL        -10.1080    -0.5610    -0.3980 c3         1 49M      -0.075400
     47 CAM        -11.4470    -0.0890    -0.9510 c3         1 49M      -0.073400
     48 CAN        -12.6310    -0.8120    -0.3230 c3         1 49M      -0.075400
     49 CAO        -13.9850    -0.3460    -0.8450 c3         1 49M      -0.073400
     50 CAP        -15.1530    -1.0730    -0.1920 c3         1 49M      -0.074400
     51 CAQ        -16.5170    -0.6130    -0.6920 c3         1 49M      -0.074400
     52 CAR        -17.6740    -1.3420    -0.0210 c3         1 49M      -0.074400
     53 CAS        -19.0450    -0.8870    -0.5070 c3         1 49M      -0.074400
     54 CAT        -20.1940    -1.6180     0.1760 c3         1 49M      -0.074400
     55 CAU        -21.5690    -1.1670    -0.2990 c3         1 49M      -0.074400
     56 CAV        -22.7120    -1.8980     0.3920 c3         1 49M      -0.074400
     57 CAW        -24.0900    -1.4490    -0.0770 c3         1 49M      -0.074400
     58 CAX        -25.2300    -2.1790     0.6210 c3         1 49M      -0.074400
     59 CAY        -26.6100    -1.7300     0.1570 c3         1 49M      -0.074400
     60 CAZ        -27.7490    -2.4580     0.8600 c3         1 49M      -0.074400
     61 C20        -30.2680    -2.7330     1.1050 c3         1 49M      -0.074400
     62 C21        -31.6420    -2.2750     0.6390 c3         1 49M      -0.088100
     63 H1          11.1640    -0.0880    -1.2490 hc         1 49M       0.047700
     64 H2          11.3870     0.5700     0.3590 hc         1 49M       0.047700
     65 H3           6.2840     1.4400    -1.0800 h1         1 49M       0.096700
     66 H4           8.9940     1.3470     0.5300 h1         1 49M       0.092700
     67 H5           9.3080    -1.5400    -0.4100 hc         1 49M       0.048200
     68 H6           9.5800    -0.9550     1.2160 hc         1 49M       0.048200
     69 H7          14.0920    -3.2280    -0.4260 hc         1 49M       0.037200
     70 H8          14.3610    -2.5650     1.1700 hc         1 49M       0.037200
     71 H9          15.9470    -1.8060    -1.3280 hc         1 49M       0.037200
     72 H10         16.2180    -1.1460     0.2700 hc         1 49M       0.037200
     73 H11         16.7470    -3.4390     1.1260 hc         1 49M       0.037200
     74 H12         16.4740    -4.0990    -0.4720 hc         1 49M       0.037200
     75 H13         18.3390    -2.6880    -1.3710 hc         1 49M       0.037200
     76 H14         18.6110    -2.0290     0.2260 hc         1 49M       0.037200
     77 H15         19.1280    -4.3250     1.0840 hc         1 49M       0.036700
     78 H16         18.8560    -4.9830    -0.5140 hc         1 49M       0.036700
     79 H17         20.7270    -3.5780    -1.4100 hc         1 49M       0.036700
     80 H18         20.9980    -2.9200     0.1890 hc         1 49M       0.036700
     81 H19         23.3820    -3.8140     0.1580 hc         1 49M       0.036700
     82 H20         23.1140    -4.4680    -1.4430 hc         1 49M       0.036700
     83 H21         23.8910    -6.1120     1.0090 hc         1 49M       0.036700
     84 H22         23.6270    -6.7630    -0.5920 hc         1 49M       0.036700
     85 H23        -29.2310    -0.9290     0.5610 hc         1 49M       0.036700
     86 H24        -29.2180    -2.1590    -0.6820 hc         1 49M       0.036700
     87 H25          4.7690     0.1680     1.0870 hn         1 49M       0.320500
     88 H26          6.9310    -0.7590    -0.2680 h1         1 49M       0.074700
     89 H27          7.5170     0.4200     2.2200 ho         1 49M       0.412000
     90 H28          8.5650     0.1990    -1.9980 ho         1 49M       0.402000
     91 H29         11.9660    -1.7100     1.2090 hc         1 49M       0.036700
     92 H30         11.7090    -2.3780    -0.3880 hc         1 49M       0.036700
     93 H31         13.8130    -0.2770     0.3140 hc         1 49M       0.036700
     94 H32         13.5520    -0.9380    -1.2850 hc         1 49M       0.036700
     95 H33         21.5080    -5.2180     1.0460 hc         1 49M       0.036700
     96 H34         21.2390    -5.8740    -0.5540 hc         1 49M       0.036700
     97 H35         26.0670    -6.4300    -0.1730 hc         1 49M       0.031367
     98 H36         25.5310    -5.3710    -1.4760 hc         1 49M       0.031367
     99 H37         25.7940    -4.7180     0.1380 hc         1 49M       0.031367
    100 H38          6.2470     2.5200     1.7990 ha         1 49M       0.118000
    101 H39          7.3940     3.5090    -0.8450 ha         1 49M       0.142000
    102 H40          6.9170     4.8040     1.9000 h1         1 49M       0.074700
    103 H41          7.6780     6.8750     0.9700 h1         1 49M       0.060700
    104 H42          5.6000     6.4170     0.2410 ho         1 49M       0.414000
    105 H43          8.4350     5.3240    -1.5420 h1         1 49M       0.057700
    106 H44          7.7800     7.6370    -1.6750 ho         1 49M       0.430000
    107 H45         10.7130     5.7290    -0.9670 h1         1 49M       0.050700
    108 H46         10.2360     7.7140     0.2610 ho         1 49M       0.422000
    109 H47          9.7310     3.7370    -0.1390 h1         1 49M       0.060700
    110 H48         12.0200     4.3240     0.5840 h1         1 49M       0.037700
    111 H49         11.3830     4.9430     2.1090 h1         1 49M       0.037700
    112 H50         11.9700     2.7030     2.2510 ho         1 49M       0.405000
    113 H51          2.5820    -0.5980    -0.1030 hc         1 49M       0.054700
    114 H52          2.4340     0.6090     1.1450 hc         1 49M       0.054700
    115 H53          1.1710     2.0960    -0.4450 hc         1 49M       0.055200
    116 H54          1.3260     0.8820    -1.6960 hc         1 49M       0.055200
    117 H55          0.0860    -0.7540    -0.2600 hc         1 49M       0.035200
    118 H56         -0.0770     0.4640     0.9850 hc         1 49M       0.035200
    119 H57         -1.3730     1.9080    -0.5990 hc         1 49M       0.040200
    120 H58         -1.2090     0.6890    -1.8440 hc         1 49M       0.040200
    121 H59         -2.4330    -0.9500    -0.4000 hc         1 49M       0.036200
    122 H60         -2.5960     0.2680     0.8450 hc         1 49M       0.036200
    123 H61         -3.9190     1.6990    -0.7270 hc         1 49M       0.038200
    124 H62         -3.7600     0.4780    -1.9710 hc         1 49M       0.038200
    125 H63         -4.9570    -1.1670    -0.5110 hc         1 49M       0.036700
    126 H64         -5.1050     0.0490     0.7380 hc         1 49M       0.036700
    127 H65         -6.4630     1.4740    -0.8110 hc         1 49M       0.037700
    128 H66         -6.3230     0.2520    -2.0570 hc         1 49M       0.037700
    129 H67         -7.4810    -1.3970    -0.5720 hc         1 49M       0.036700
    130 H68         -7.6060    -0.1840     0.6810 hc         1 49M       0.036700
    131 H69         -9.0070     1.2360    -0.8330 hc         1 49M       0.037700
    132 H70         -8.8950     0.0150    -2.0820 hc         1 49M       0.037700
    133 H71        -10.0070    -1.6390    -0.5680 hc         1 49M       0.036700
    134 H72        -10.1010    -0.4280     0.6900 hc         1 49M       0.036700
    135 H73        -11.5480     0.9890    -0.7860 hc         1 49M       0.037700
    136 H74        -11.4660    -0.2320    -2.0370 hc         1 49M       0.037700
    137 H75        -12.5300    -1.8900    -0.4940 hc         1 49M       0.036700
    138 H76        -12.5990    -0.6770     0.7640 hc         1 49M       0.036700
    139 H77        -14.0870     0.7320    -0.6780 hc         1 49M       0.037700
    140 H78        -14.0270    -0.4890    -1.9310 hc         1 49M       0.037700
    141 H79        -15.0510    -2.1500    -0.3630 hc         1 49M       0.036700
    142 H80        -15.1010    -0.9350     0.8940 hc         1 49M       0.036700
    143 H81        -16.6200     0.4650    -0.5240 hc         1 49M       0.037200
    144 H82        -16.5760    -0.7560    -1.7770 hc         1 49M       0.037200
    145 H83        -17.5700    -2.4200    -0.1900 hc         1 49M       0.036700
    146 H84        -17.6090    -1.2000     1.0630 hc         1 49M       0.036700
    147 H85        -19.1490     0.1910    -0.3400 hc         1 49M       0.037700
    148 H86        -19.1140    -1.0330    -1.5910 hc         1 49M       0.037700
    149 H87        -20.0890    -2.6960     0.0080 hc         1 49M       0.036700
    150 H88        -20.1200    -1.4740     1.2600 hc         1 49M       0.036700
    151 H89        -21.6740    -0.0890    -0.1340 hc         1 49M       0.036700
    152 H90        -21.6450    -1.3140    -1.3830 hc         1 49M       0.036700
    153 H91        -22.6070    -2.9760     0.2250 hc         1 49M       0.036700
    154 H92        -22.6330    -1.7520     1.4750 hc         1 49M       0.036700
    155 H93        -24.1950    -0.3700     0.0880 hc         1 49M       0.037200
    156 H94        -24.1720    -1.5980    -1.1590 hc         1 49M       0.037200
    157 H95        -25.1260    -3.2570     0.4550 hc         1 49M       0.036700
    158 H96        -25.1460    -2.0310     1.7030 hc         1 49M       0.036700
    159 H97        -26.7140    -0.6510     0.3200 hc         1 49M       0.036700
    160 H98        -26.6960    -1.8810    -0.9250 hc         1 49M       0.036700
    161 H99        -27.6610    -2.3080     1.9420 hc         1 49M       0.036700
    162 H100       -27.6460    -3.5370     0.6960 hc         1 49M       0.036700
    163 H101       -30.1660    -3.8110     0.9420 hc         1 49M       0.036700
    164 H102       -30.1770    -2.5820     2.1860 hc         1 49M       0.036700
    165 H103       -32.4410    -2.8060     1.1570 hc         1 49M       0.031367
    166 H104       -31.7830    -1.2070     0.8190 hc         1 49M       0.031367
    167 H105       -31.7720    -2.4460    -0.4320 hc         1 49M       0.031367
    168 CAA          3.7950     1.1200    -0.4220 c          1 49M       0.667100
@<TRIPOS>BOND
     1     1     4 1   
     2     1    19 1   
     3     1    63 1   
     4     1    64 1   
     5     2    15 1   
     6     2    16 1   
     7     2    23 1   
     8     2    65 1   
     9     3     4 1   
    10     3    16 1   
    11     3    18 1   
    12     3    66 1   
    13     4    67 1   
    14     4    68 1   
    15     5     6 1   
    16     5    20 1   
    17     5    69 1   
    18     5    70 1   
    19     6     7 1   
    20     6    71 1   
    21     6    72 1   
    22     7     8 1   
    23     7    73 1   
    24     7    74 1   
    25     8     9 1   
    26     8    75 1   
    27     8    76 1   
    28     9    10 1   
    29     9    77 1   
    30     9    78 1   
    31    10    21 1   
    32    10    79 1   
    33    10    80 1   
    34    11    12 1   
    35    11    21 1   
    36    11    81 1   
    37    11    82 1   
    38    12    22 1   
    39    12    83 1   
    40    12    84 1   
    41    13    60 1   
    42    13    61 1   
    43    13    85 1   
    44    13    86 1   
    45    14   168 2   
    46    15    87 1   
    47    15   168 1   
    48    16    17 1   
    49    16    88 1   
    50    17    89 1   
    51    18    90 1   
    52    19    20 1   
    53    19    91 1   
    54    19    92 1   
    55    20    93 1   
    56    20    94 1   
    57    21    95 1   
    58    21    96 1   
    59    22    97 1   
    60    22    98 1   
    61    22    99 1   
    62    23    24 2   
    63    23   100 1   
    64    24    25 1   
    65    24   101 1   
    66    25    26 1   
    67    25    35 1   
    68    25   102 1   
    69    26    27 1   
    70    26    28 1   
    71    26   103 1   
    72    27   104 1   
    73    28    29 1   
    74    28    30 1   
    75    28   105 1   
    76    29   106 1   
    77    30    31 1   
    78    30    32 1   
    79    30   107 1   
    80    31   108 1   
    81    32    33 1   
    82    32    35 1   
    83    32   109 1   
    84    33    34 1   
    85    33   110 1   
    86    33   111 1   
    87    34   112 1   
    88    36    37 1   
    89    36   113 1   
    90    36   114 1   
    91    36   168 1   
    92    37    38 1   
    93    37   115 1   
    94    37   116 1   
    95    38    39 1   
    96    38   117 1   
    97    38   118 1   
    98    39    40 1   
    99    39   119 1   
   100    39   120 1   
   101    40    41 1   
   102    40   121 1   
   103    40   122 1   
   104    41    42 1   
   105    41   123 1   
   106    41   124 1   
   107    42    43 1   
   108    42   125 1   
   109    42   126 1   
   110    43    44 1   
   111    43   127 1   
   112    43   128 1   
   113    44    45 1   
   114    44   129 1   
   115    44   130 1   
   116    45    46 1   
   117    45   131 1   
   118    45   132 1   
   119    46    47 1   
   120    46   133 1   
   121    46   134 1   
   122    47    48 1   
   123    47   135 1   
   124    47   136 1   
   125    48    49 1   
   126    48   137 1   
   127    48   138 1   
   128    49    50 1   
   129    49   139 1   
   130    49   140 1   
   131    50    51 1   
   132    50   141 1   
   133    50   142 1   
   134    51    52 1   
   135    51   143 1   
   136    51   144 1   
   137    52    53 1   
   138    52   145 1   
   139    52   146 1   
   140    53    54 1   
   141    53   147 1   
   142    53   148 1   
   143    54    55 1   
   144    54   149 1   
   145    54   150 1   
   146    55    56 1   
   147    55   151 1   
   148    55   152 1   
   149    56    57 1   
   150    56   153 1   
   151    56   154 1   
   152    57    58 1   
   153    57   155 1   
   154    57   156 1   
   155    58    59 1   
   156    58   157 1   
   157    58   158 1   
   158    59    60 1   
   159    59   159 1   
   160    59   160 1   
   161    60   161 1   
   162    60   162 1   
   163    61    62 1   
   164    61   163 1   
   165    61   164 1   
   166    62   165 1   
   167    62   166 1   
   168    62   167 1   
@<TRIPOS>SUBSTRUCTURE
     1 49M         1 TEMP              0 ****  ****    0 ROOT
