@<TRIPOS>MOLECULE
49N
   28    29     1     0     0
SMALL
bcc


@<TRIPOS>ATOM
      1 C10         -2.6920     2.1220    -0.0520 ca         1 49N      -0.266300
      2 C5          -2.6200     0.7500     0.1250 ca         1 49N      -0.041000
      3 C9          -1.5160     2.8130    -0.2820 ca         1 49N       0.447200
      4 C2          -1.3790     0.1300     0.0830 ca         1 49N      -0.303600
      5 C1          -0.2400     0.9240    -0.1100 ca         1 49N       0.660200
      6 C14          3.1100    -0.1990    -1.2200 c6         1 49N       0.155300
      7 C15          2.9260    -0.5180     1.1450 c6         1 49N       0.155300
      8 C7           1.9060     0.7270    -1.1960 c6         1 49N       0.184800
      9 C8           1.7170     0.3960     1.1770 c6         1 49N       0.184800
     10 C6          -1.2680    -1.3630     0.1680 c3         1 49N       0.740200
     11 N4          -0.3240     2.2310    -0.3020 nb         1 49N      -0.709000
     12 N16          3.8000    -0.1240     0.0550 n7         1 49N      -0.809200
     13 N3           1.0270     0.3190    -0.1090 nh         1 49N      -0.751300
     14 F11         -2.4760    -1.9360     0.2650 f          1 49N      -0.233300
     15 F12         -0.6860    -1.8880    -0.9140 f          1 49N      -0.233300
     16 F13         -0.5720    -1.7800     1.2340 f          1 49N      -0.233300
     17 H1          -3.6410     2.6390    -0.0300 ha         1 49N       0.151000
     18 H2          -3.5280     0.1830     0.2770 ha         1 49N       0.156000
     19 H3          -1.5340     3.8840    -0.4520 h4         1 49N       0.025100
     20 H5           3.7890     0.1140    -2.0150 h1         1 49N       0.040700
     21 H6           3.4680    -0.4350     2.0890 h1         1 49N       0.040700
     22 H7           2.5720    -1.5570     1.0570 h1         1 49N       0.040700
     23 H8           2.2450     1.7660    -1.0880 h1         1 49N       0.050950
     24 H9           1.3660     0.6510    -2.1410 h1         1 49N       0.050950
     25 H10          1.0440     0.0910     1.9780 h1         1 49N       0.050950
     26 H11          2.0380     1.4270     1.3910 h1         1 49N       0.050950
     27 H12          4.6140    -0.7240     0.0380 hn         1 49N       0.357800
     28 H4           2.7630    -1.2160    -1.4590 h1         1 49N       0.040700
@<TRIPOS>BOND
     1     1     2 ar  
     2     1     3 ar  
     3     1    17 1   
     4     2     4 ar  
     5     2    18 1   
     6     3    11 ar  
     7     3    19 1   
     8     4     5 ar  
     9     4    10 1   
    10     5    11 ar  
    11     5    13 1   
    12     6     8 1   
    13     6    12 1   
    14     6    20 1   
    15     6    28 1   
    16     7     9 1   
    17     7    12 1   
    18     7    21 1   
    19     7    22 1   
    20     8    13 1   
    21     8    23 1   
    22     8    24 1   
    23     9    13 1   
    24     9    25 1   
    25     9    26 1   
    26    10    14 1   
    27    10    15 1   
    28    10    16 1   
    29    12    27 1   
@<TRIPOS>SUBSTRUCTURE
     1 49N         1 TEMP              0 ****  ****    0 ROOT
