@<TRIPOS>MOLECULE
49N
   28    29     1     0     0
SMALL
No Charge or Current Charge


@<TRIPOS>ATOM
      1 C10         -2.7680     2.1370    -0.0680 ca         1 49N      -0.183000
      2 C5          -2.6990     0.7400     0.0220 ca         1 49N      -0.023000
      3 C9          -1.5820     2.8780    -0.1520 ca         1 49N       0.381900
      4 C2          -1.4260     0.1300     0.0270 ca         1 49N      -0.238300
      5 C1          -0.2930     0.9660    -0.0580 ca         1 49N       0.594900
      6 C14          3.1250    -0.2640    -1.2520 c6         1 49N       0.155300
      7 C15          3.0120    -0.4680     1.1980 c6         1 49N       0.155300
      8 C7           1.8880     0.6960    -1.2410 c6         1 49N       0.184800
      9 C8           1.7760     0.4910     1.2320 c6         1 49N       0.184800
     10 C6          -1.2750    -1.3900     0.1120 c3         1 49N       0.376300
     11 N4          -0.3600     2.3060    -0.1470 nb         1 49N      -0.709000
     12 N16          3.9000    -0.2270     0.0230 n7         1 49N      -0.864400
     13 N3           1.0120     0.4690    -0.0520 nh         1 49N      -0.751300
     14 F11         -2.4670    -2.0310     0.1340 f          1 49N      -0.112000
     15 F12         -0.5950    -1.8920    -0.9440 f          1 49N      -0.112000
     16 F13         -0.6190    -1.7710     1.2320 f          1 49N      -0.112000
     17 H1          -3.7270     2.6470    -0.0760 ha         1 49N       0.133000
     18 H2          -3.6160     0.1570     0.0850 ha         1 49N       0.138000
     19 H3          -1.6100     3.9650    -0.2240 h4         1 49N       0.025100
     20 H5           3.7830    -0.0020    -2.0930 h1         1 49N       0.040700
     21 H6           3.5890    -0.3530     2.1270 h1         1 49N       0.040700
     22 H7           2.6480    -1.5060     1.1650 h1         1 49N       0.040700
     23 H8           2.2490     1.7360    -1.2470 h1         1 49N       0.050950
     24 H9           1.3170     0.5420    -2.1680 h1         1 49N       0.050950
     25 H10          1.1250     0.1950     2.0680 h1         1 49N       0.050950
     26 H11          2.1260     1.5130     1.4380 h1         1 49N       0.050950
     27 H12          4.6290    -0.9520    -0.0040 hn         1 49N       0.413000
     28 H4           2.7680    -1.2910    -1.4240 h1         1 49N       0.040700
@<TRIPOS>BOND
     1     1     2 ar  
     2     1     3 ar  
     3     1    17 1   
     4     2     4 ar  
     5     2    18 1   
     6     3    11 ar  
     7     3    19 1   
     8     4     5 ar  
     9     4    10 1   
    10     5    11 ar  
    11     5    13 1   
    12     6     8 1   
    13     6    12 1   
    14     6    20 1   
    15     6    28 1   
    16     7     9 1   
    17     7    12 1   
    18     7    21 1   
    19     7    22 1   
    20     8    13 1   
    21     8    23 1   
    22     8    24 1   
    23     9    13 1   
    24     9    25 1   
    25     9    26 1   
    26    10    14 1   
    27    10    15 1   
    28    10    16 1   
    29    12    27 1   
@<TRIPOS>SUBSTRUCTURE
     1 49N         1 TEMP              0 ****  ****    0 ROOT
