@<TRIPOS>MOLECULE
49O
   26    27     1     0     0
SMALL
No Charge or Current Charge


@<TRIPOS>ATOM
      1 C8          -1.1670    -1.8970    -0.6890 cg         1 49O       0.339000
      2 C12         -3.4090     0.9600     0.1300 ca         1 49O      -0.214000
      3 C7          -3.0000    -0.3170    -0.2790 ca         1 49O      -0.008000
      4 C9          -2.4400     1.9040     0.5010 ca         1 49O       0.400900
      5 C3          -1.6230    -0.5950    -0.3050 ca         1 49O      -0.122000
      6 C1          -0.7190     0.4190     0.0790 ca         1 49O       0.642900
      7 C10          2.8050    -0.5000    -1.0880 c6         1 49O       0.140300
      8 C11          2.9080     0.1130     1.2890 c6         1 49O       0.140300
      9 C5           1.4070     0.1860    -1.2250 c6         1 49O       0.173300
     10 C6           1.5090     0.8060     1.1910 c6         1 49O       0.173300
     11 N13         -0.8130    -2.9630    -1.0090 n1         1 49O      -0.463000
     12 N4          -1.1150     1.6430     0.4790 nb         1 49O      -0.746000
     13 N14          3.6430     0.1060    -0.0110 n7         1 49O      -0.841400
     14 N2           0.6770     0.2420     0.0800 nh         1 49O      -0.768300
     15 H1          -4.4620     1.2220     0.1670 ha         1 49O       0.132000
     16 H2          -3.7350    -1.0700    -0.5640 ha         1 49O       0.129000
     17 H3          -2.7330     2.9010     0.8260 h4         1 49O       0.021100
     18 H4           2.6510    -1.5680    -0.8700 h1         1 49O       0.064700
     19 H5           3.3340    -0.4400    -2.0510 h1         1 49O       0.064700
     20 H6           3.5110     0.6210     2.0570 h1         1 49O       0.064700
     21 H7           2.7610    -0.9240     1.6270 h1         1 49O       0.064700
     22 H8           1.5490     1.2060    -1.6120 h1         1 49O       0.051700
     23 H9           0.8210    -0.3630    -1.9760 h1         1 49O       0.051700
     24 H10          0.9930     0.6810     2.1550 h1         1 49O       0.051700
     25 H11          1.6580     1.8850     1.0380 h1         1 49O       0.051700
     26 H12          3.8340     1.0820    -0.2710 hn         1 49O       0.402000
@<TRIPOS>BOND
     1     1     5 1   
     2     1    11 3   
     3     2     3 ar  
     4     2     4 ar  
     5     2    15 1   
     6     3     5 ar  
     7     3    16 1   
     8     4    12 ar  
     9     4    17 1   
    10     5     6 ar  
    11     6    12 ar  
    12     6    14 1   
    13     7     9 1   
    14     7    13 1   
    15     7    18 1   
    16     7    19 1   
    17     8    10 1   
    18     8    13 1   
    19     8    20 1   
    20     8    21 1   
    21     9    14 1   
    22     9    22 1   
    23     9    23 1   
    24    10    14 1   
    25    10    24 1   
    26    10    25 1   
    27    13    26 1   
@<TRIPOS>SUBSTRUCTURE
     1 49O         1 TEMP              0 ****  ****    0 ROOT
