@<TRIPOS>MOLECULE
49O
   26    27     1     0     0
SMALL
abcg2


@<TRIPOS>ATOM
      1 C8          -1.0760    -1.7150    -0.9960 cg         1 49O       0.339000
      2 C12         -3.3800     0.8920     0.2010 ca         1 49O      -0.214000
      3 C7          -2.9040    -0.2250    -0.4590 ca         1 49O      -0.008000
      4 C9          -2.4500     1.6920     0.8470 ca         1 49O       0.400900
      5 C3          -1.5350    -0.4730    -0.4810 ca         1 49O      -0.122000
      6 C1          -0.6530     0.4550     0.1290 ca         1 49O       0.642900
      7 C10          2.6960    -0.6870    -0.9300 c6         1 49O       0.140300
      8 C11          2.8360     0.2820     1.2520 c6         1 49O       0.140300
      9 C5           1.3910     0.0570    -1.1760 c6         1 49O       0.173300
     10 C6           1.5270     1.0350     1.0300 c6         1 49O       0.173300
     11 N13         -0.7340    -2.7450    -1.3880 n1         1 49O      -0.463000
     12 N4          -1.1410     1.4920     0.8050 nb         1 49O      -0.746000
     13 N14          3.5600    -0.0220     0.0300 n7         1 49O      -0.841400
     14 N2           0.7020     0.2860     0.0930 nh         1 49O      -0.768300
     15 H1          -4.4350     1.1180     0.2450 ha         1 49O       0.132000
     16 H2          -3.5830    -0.9240    -0.9290 ha         1 49O       0.129000
     17 H3          -2.7790     2.5500     1.4230 h4         1 49O       0.021100
     18 H4           2.4690    -1.6920    -0.5620 h1         1 49O       0.064700
     19 H5           3.2280    -0.8000    -1.8760 h1         1 49O       0.064700
     20 H6           3.4770     0.8690     1.9120 h1         1 49O       0.064700
     21 H7           2.6160    -0.6580     1.7670 h1         1 49O       0.064700
     22 H8           1.6070     1.0260    -1.6470 h1         1 49O       0.051700
     23 H9           0.7710    -0.5020    -1.8720 h1         1 49O       0.051700
     24 H10          1.0000     1.1430     1.9760 h1         1 49O       0.051700
     25 H11          1.7350     2.0450     0.6520 h1         1 49O       0.051700
     26 H12          3.8990     0.8420    -0.3770 hn         1 49O       0.402000
@<TRIPOS>BOND
     1     1     5 1   
     2     1    11 3   
     3     2     3 ar  
     4     2     4 ar  
     5     2    15 1   
     6     3     5 ar  
     7     3    16 1   
     8     4    12 ar  
     9     4    17 1   
    10     5     6 ar  
    11     6    12 ar  
    12     6    14 1   
    13     7     9 1   
    14     7    13 1   
    15     7    18 1   
    16     7    19 1   
    17     8    10 1   
    18     8    13 1   
    19     8    20 1   
    20     8    21 1   
    21     9    14 1   
    22     9    22 1   
    23     9    23 1   
    24    10    14 1   
    25    10    24 1   
    26    10    25 1   
    27    13    26 1   
@<TRIPOS>SUBSTRUCTURE
     1 49O         1 TEMP              0 ****  ****    0 ROOT
