@<TRIPOS>MOLECULE
49P
   23    24     1     0     0
SMALL
No Charge or Current Charge


@<TRIPOS>ATOM
      1 C16          0.8390     2.5230    -0.4380 ca         1 49P      -0.098000
      2 C15          1.9420     1.7120    -0.1240 ca         1 49P      -0.071000
      3 C14         -0.4490     1.9690    -0.5040 ca         1 49P      -0.108000
      4 C9           0.4670    -0.2160     0.0540 ca         1 49P      -0.062000
      5 C6          -3.5700    -1.1700    -0.7180 cc         1 49P       0.187900
      6 C3          -2.8980     0.5740     0.5090 cd         1 49P      -0.199000
      7 C8           1.7670     0.3340     0.1320 ca         1 49P      -0.179300
      8 C7          -0.6420     0.5960    -0.2560 ca         1 49P       0.027800
      9 C5          -3.9740    -0.2100     0.2410 cc         1 49P       0.021100
     10 C4           2.9690    -0.5600     0.4630 c3         1 49P       0.357300
     11 N2          -2.3060    -1.0600    -1.0840 nd         1 49P      -0.493800
     12 N1          -1.9190     0.0330    -0.3260 na         1 49P       0.229000
     13 F10          2.6400    -1.5730     1.2960 f          1 49P      -0.111000
     14 F11          3.4860    -1.1190    -0.6540 f          1 49P      -0.111000
     15 F12          3.9710     0.1230     1.0630 f          1 49P      -0.111000
     16 H1           0.9850     3.5830    -0.6350 ha         1 49P       0.126000
     17 H2           2.9340     2.1600    -0.0850 ha         1 49P       0.137000
     18 H3          -1.2960     2.6050    -0.7540 ha         1 49P       0.126000
     19 H4           0.3110    -1.2780     0.2330 ha         1 49P       0.160000
     20 H5          -4.1720    -1.9560    -1.1540 h4         1 49P       0.045100
     21 H6          -2.7490     1.4130     1.1770 h4         1 49P       0.169000
     22 H7          -5.7640    -0.8270     0.3870 ho         1 49P       0.469000
     23 O13         -5.2090    -0.1180     0.7810 oh         1 49P      -0.510100
@<TRIPOS>BOND
     1     1     2 ar  
     2     1     3 ar  
     3     1    16 1   
     4     2     7 ar  
     5     2    17 1   
     6     3     8 ar  
     7     3    18 1   
     8     4     7 ar  
     9     4     8 ar  
    10     4    19 1   
    11     5     9 1   
    12     5    11 2   
    13     5    20 1   
    14     6     9 2   
    15     6    12 1   
    16     6    21 1   
    17     7    10 1   
    18     8    12 1   
    19     9    23 1   
    20    10    13 1   
    21    10    14 1   
    22    10    15 1   
    23    11    12 1   
    24    22    23 1   
@<TRIPOS>SUBSTRUCTURE
     1 49P         1 TEMP              0 ****  ****    0 ROOT
