@<TRIPOS>MOLECULE
49P
   23    24     1     0     0
SMALL
abcg2


@<TRIPOS>ATOM
      1 C16          0.8660     2.5420     0.0090 ca         1 49P      -0.098000
      2 C15          1.9740     1.7080     0.0520 ca         1 49P      -0.071000
      3 C14         -0.4160     2.0230    -0.0290 ca         1 49P      -0.108000
      4 C9           0.4960    -0.2040     0.0210 ca         1 49P      -0.062000
      5 C6          -3.3670    -1.4180    -0.1130 cc         1 49P       0.187900
      6 C3          -3.0850     0.7700    -0.0640 cd         1 49P      -0.199000
      7 C8           1.7750     0.3360     0.0590 ca         1 49P      -0.179300
      8 C7          -0.6050     0.6430    -0.0220 ca         1 49P       0.027800
      9 C5          -4.0610    -0.1900    -0.0990 cc         1 49P       0.021100
     10 C4           2.9340    -0.6140     0.0850 c3         1 49P       0.357300
     11 N2          -2.0670    -1.2180    -0.0880 nd         1 49P      -0.493800
     12 N1          -1.8980     0.0990    -0.0580 na         1 49P       0.229000
     13 F10          2.8130    -1.5200     1.0640 f          1 49P      -0.111000
     14 F11          3.0320    -1.3030    -1.0610 f          1 49P      -0.111000
     15 F12          4.1020     0.0070     0.2670 f          1 49P      -0.111000
     16 H1           1.0010     3.6150     0.0030 ha         1 49P       0.126000
     17 H2           2.9650     2.1370     0.0820 ha         1 49P       0.137000
     18 H3          -1.2530     2.7050    -0.0650 ha         1 49P       0.126000
     19 H4           0.3440    -1.2740     0.0260 ha         1 49P       0.160000
     20 H5          -3.7720    -2.4190    -0.1390 h4         1 49P       0.045100
     21 H6          -3.1630     1.8430    -0.0410 h4         1 49P       0.169000
     22 H7          -5.8700    -0.7800    -0.1720 ho         1 49P       0.469000
     23 O13         -5.3830     0.0490    -0.1130 oh         1 49P      -0.510100
@<TRIPOS>BOND
     1     1     2 ar  
     2     1     3 ar  
     3     1    16 1   
     4     2     7 ar  
     5     2    17 1   
     6     3     8 ar  
     7     3    18 1   
     8     4     7 ar  
     9     4     8 ar  
    10     4    19 1   
    11     5     9 1   
    12     5    11 2   
    13     5    20 1   
    14     6     9 2   
    15     6    12 1   
    16     6    21 1   
    17     7    10 1   
    18     8    12 1   
    19     9    23 1   
    20    10    13 1   
    21    10    14 1   
    22    10    15 1   
    23    11    12 1   
    24    22    23 1   
@<TRIPOS>SUBSTRUCTURE
     1 49P         1 TEMP              0 ****  ****    0 ROOT
