@<TRIPOS>MOLECULE
49Q
   36    37     1     0     0
SMALL
bcc


@<TRIPOS>ATOM
      1 C17         -6.2690     0.3390    -0.5820 ca         1 49Q      -0.117000
      2 C14         -5.6440    -0.8810    -0.3540 ca         1 49Q      -0.133500
      3 C15         -5.5850     1.5210    -0.3360 ca         1 49Q      -0.133500
      4 C11         -4.3400    -0.9170     0.1170 ca         1 49Q      -0.103000
      5 C12         -4.2770     1.4810     0.1320 ca         1 49Q      -0.103000
      6 C5           2.0220    -1.0470    -0.9520 ca         1 49Q      -0.088000
      7 C6           1.9380    -0.2050     1.2720 ca         1 49Q      -0.088000
      8 C2           0.6540    -0.8860    -1.0730 ca         1 49Q      -0.188500
      9 C3           0.5610    -0.0360     1.1730 ca         1 49Q      -0.188500
     10 C8           2.6950    -0.7100     0.2230 ca         1 49Q      -0.117300
     11 C9          -3.6450     0.2650     0.3640 ca         1 49Q      -0.095300
     12 C1          -0.0910    -0.3750    -0.0090 ca         1 49Q       0.141100
     13 C7          -2.2290     0.2210     0.8540 c3         1 49Q       0.187700
     14 C13          4.9140     0.4070    -0.1790 c3         1 49Q      -0.081400
     15 C16          6.4180     0.2730    -0.0470 c3         1 49Q       0.139400
     16 O18          7.0310     1.4430    -0.5470 oh         1 49Q      -0.598800
     17 O4          -1.4200    -0.2450    -0.2160 os         1 49Q      -0.319900
     18 H1          -7.2880     0.3670    -0.9480 ha         1 49Q       0.131000
     19 H2          -6.1750    -1.8060    -0.5410 ha         1 49Q       0.132000
     20 H3          -6.0660     2.4750    -0.5090 ha         1 49Q       0.132000
     21 H4          -3.8620    -1.8720     0.3010 ha         1 49Q       0.133000
     22 H5          -3.7460     2.4070     0.3200 ha         1 49Q       0.133000
     23 H6           2.5770    -1.4490    -1.7920 ha         1 49Q       0.129000
     24 H7           2.4270     0.0670     2.2010 ha         1 49Q       0.129000
     25 H8           0.1510    -1.1610    -1.9920 ha         1 49Q       0.139000
     26 H9           0.0250     0.3610     2.0240 ha         1 49Q       0.139000
     27 H10          4.4670    -1.0210     1.3720 hc         1 49Q       0.043200
     28 H11          4.5280    -1.7100    -0.2370 hc         1 49Q       0.043200
     29 H12         -1.9080     1.2170     1.1770 h1         1 49Q       0.040700
     30 H13         -2.1390    -0.4530     1.7140 h1         1 49Q       0.040700
     31 H14          4.6510     0.5790    -1.2270 hc         1 49Q       0.056200
     32 H15          4.5720     1.2820     0.3820 hc         1 49Q       0.056200
     33 H16          6.6740     0.1060     1.0080 h1         1 49Q       0.014200
     34 H17          6.7500    -0.6190    -0.5960 h1         1 49Q       0.014200
     35 H18          7.9820     1.3500    -0.4460 ho         1 49Q       0.403000
     36 C10          4.1890    -0.8390     0.3300 c3         1 49Q      -0.023100
@<TRIPOS>BOND
     1     1     2 ar  
     2     1     3 ar  
     3     1    18 1   
     4     2     4 ar  
     5     2    19 1   
     6     3     5 ar  
     7     3    20 1   
     8     4    11 ar  
     9     4    21 1   
    10     5    11 ar  
    11     5    22 1   
    12     6     8 ar  
    13     6    10 ar  
    14     6    23 1   
    15     7     9 ar  
    16     7    10 ar  
    17     7    24 1   
    18     8    12 ar  
    19     8    25 1   
    20     9    12 ar  
    21     9    26 1   
    22    10    36 1   
    23    11    13 1   
    24    12    17 1   
    25    13    17 1   
    26    13    29 1   
    27    13    30 1   
    28    14    15 1   
    29    14    31 1   
    30    14    32 1   
    31    14    36 1   
    32    15    16 1   
    33    15    33 1   
    34    15    34 1   
    35    16    35 1   
    36    27    36 1   
    37    28    36 1   
@<TRIPOS>SUBSTRUCTURE
     1 49Q         1 TEMP              0 ****  ****    0 ROOT
