@<TRIPOS>MOLECULE
49Q
   36    37     1     0     0
SMALL
No Charge or Current Charge


@<TRIPOS>ATOM
      1 C17         -6.3820     0.3470    -0.5510 ca         1 49Q      -0.099000
      2 C14         -5.8740    -0.8510    -0.0200 ca         1 49Q      -0.115500
      3 C15         -5.5620     1.4860    -0.6190 ca         1 49Q      -0.115500
      4 C11         -4.5490    -0.9100     0.4440 ca         1 49Q      -0.085000
      5 C12         -4.2360     1.4280    -0.1550 ca         1 49Q      -0.085000
      6 C5           2.0640    -0.9200    -1.0990 ca         1 49Q      -0.070000
      7 C6           1.9850    -0.3080     1.2530 ca         1 49Q      -0.070000
      8 C2           0.6710    -0.7560    -1.1860 ca         1 49Q      -0.170500
      9 C3           0.5910    -0.1440     1.1660 ca         1 49Q      -0.170500
     10 C8           2.7280    -0.6980     0.1220 ca         1 49Q      -0.117300
     11 C9          -3.7220     0.2300     0.3810 ca         1 49Q      -0.095300
     12 C1          -0.0720    -0.3700    -0.0600 ca         1 49Q       0.141100
     13 C7          -2.2870     0.1670     0.8840 c3         1 49Q       0.210900
     14 C13          4.9920     0.4430    -0.0890 c3         1 49Q      -0.081400
     15 C16          6.5230     0.2930     0.0020 c3         1 49Q       0.162600
     16 O18          7.1490     1.5450    -0.2930 oh         1 49Q      -0.661000
     17 O4          -1.4360    -0.2250    -0.2070 os         1 49Q      -0.343100
     18 H1          -7.4080     0.3920    -0.9100 ha         1 49Q       0.113000
     19 H2          -6.5080    -1.7340     0.0310 ha         1 49Q       0.114000
     20 H3          -5.9540     2.4130    -1.0310 ha         1 49Q       0.114000
     21 H4          -4.1620    -1.8420     0.8520 ha         1 49Q       0.115000
     22 H5          -3.6070     2.3140    -0.2120 ha         1 49Q       0.115000
     23 H6           2.6270    -1.2170    -1.9820 ha         1 49Q       0.111000
     24 H7           2.4890    -0.1300     2.2010 ha         1 49Q       0.111000
     25 H8           0.1640    -0.9290    -2.1320 ha         1 49Q       0.121000
     26 H9           0.0470     0.1570     2.0570 ha         1 49Q       0.121000
     27 H10          4.5150    -1.2180     1.2200 hc         1 49Q       0.043200
     28 H11          4.5740    -1.6480    -0.4790 hc         1 49Q       0.043200
     29 H12         -1.9910     1.1520     1.2700 h1         1 49Q       0.040700
     30 H13         -2.2190    -0.5570     1.7070 h1         1 49Q       0.040700
     31 H14          4.7220     0.7850    -1.0950 hc         1 49Q       0.056200
     32 H15          4.6630     1.2180     0.6140 hc         1 49Q       0.056200
     33 H16          6.7960    -0.0390     1.0120 h1         1 49Q       0.014200
     34 H17          6.8550    -0.4750    -0.7090 h1         1 49Q       0.014200
     35 H18          8.1200     1.4010    -0.2240 ho         1 49Q       0.442000
     36 C10          4.2380    -0.8690     0.2170 c3         1 49Q      -0.023100
@<TRIPOS>BOND
     1     1     2 ar  
     2     1     3 ar  
     3     1    18 1   
     4     2     4 ar  
     5     2    19 1   
     6     3     5 ar  
     7     3    20 1   
     8     4    11 ar  
     9     4    21 1   
    10     5    11 ar  
    11     5    22 1   
    12     6     8 ar  
    13     6    10 ar  
    14     6    23 1   
    15     7     9 ar  
    16     7    10 ar  
    17     7    24 1   
    18     8    12 ar  
    19     8    25 1   
    20     9    12 ar  
    21     9    26 1   
    22    10    36 1   
    23    11    13 1   
    24    12    17 1   
    25    13    17 1   
    26    13    29 1   
    27    13    30 1   
    28    14    15 1   
    29    14    31 1   
    30    14    32 1   
    31    14    36 1   
    32    15    16 1   
    33    15    33 1   
    34    15    34 1   
    35    16    35 1   
    36    27    36 1   
    37    28    36 1   
@<TRIPOS>SUBSTRUCTURE
     1 49Q         1 TEMP              0 ****  ****    0 ROOT
