@<TRIPOS>MOLECULE
49R
   38    39     1     0     0
SMALL
abcg2


@<TRIPOS>ATOM
      1 C17          5.2470     1.2410     0.1520 ca         1 49R      -0.157000
      2 C18          5.5620    -0.1130     0.1300 ca         1 49R      -0.068000
      3 C12          3.9170     1.6200     0.0510 ca         1 49R      -0.067000
      4 C13          4.5620    -1.0620     0.0110 ca         1 49R      -0.181000
      5 C5           2.8940     0.6880    -0.0780 ca         1 49R      -0.148300
      6 C4           3.2180    -0.6790    -0.0910 ca         1 49R       0.312000
      7 C1          -1.9630    -0.0860     0.3060 c          1 49R       0.650100
      8 C8           1.4610     1.1370    -0.2100 c6         1 49R      -0.033100
      9 C11          0.9090    -1.2590    -0.6110 c6         1 49R       0.187800
     10 C9           0.4790     0.0170     0.1070 c6         1 49R       0.120700
     11 C14         -4.6780     0.4460     1.5750 c3         1 49R      -0.108433
     12 C15         -4.6500    -1.4290    -0.1180 c3         1 49R      -0.108433
     13 C16         -5.2710     0.8860    -0.8040 c3         1 49R      -0.108433
     14 C10         -4.3990     0.0540     0.1290 c3         1 49R       0.225000
     15 N2           2.2270    -1.6320    -0.1570 nu         1 49R      -0.945200
     16 N3          -0.8530     0.4240    -0.2690 ns         1 49R      -0.508900
     17 O7          -1.9500    -0.8850     1.2210 o          1 49R      -0.546000
     18 O6          -3.0520     0.4280    -0.2650 os         1 49R      -0.482100
     19 H1           6.0240     1.9880     0.2480 ha         1 49R       0.114000
     20 H2           6.5930    -0.4340     0.2070 ha         1 49R       0.110000
     21 H3           3.6590     2.6740     0.0680 ha         1 49R       0.106000
     22 H4           4.8140    -2.1160     0.0000 ha         1 49R       0.110000
     23 H5           1.2710     1.9910     0.4440 hc         1 49R       0.051200
     24 H6           1.2840     1.4860    -1.2340 hc         1 49R       0.051200
     25 H7           0.2180    -2.0700    -0.3770 h1         1 49R       0.044200
     26 H8           0.8650    -1.0920    -1.6970 h1         1 49R       0.044200
     27 H9           0.4920    -0.1750     1.1820 h1         1 49R       0.095700
     28 H10         -4.1160    -0.1530     2.2870 hc         1 49R       0.049367
     29 H11         -4.4470     1.4990     1.7430 hc         1 49R       0.049367
     30 H12         -5.7390     0.3050     1.7830 hc         1 49R       0.049367
     31 H13         -5.7070    -1.6430     0.0460 hc         1 49R       0.049367
     32 H14         -4.4170    -1.6990    -1.1490 hc         1 49R       0.049367
     33 H15         -4.0750    -2.0660     0.5480 hc         1 49R       0.049367
     34 H16         -5.1020     1.9550    -0.6570 hc         1 49R       0.049367
     35 H17         -5.0760     0.6480    -1.8510 hc         1 49R       0.049367
     36 H18         -6.3230     0.6840    -0.6060 hc         1 49R       0.049367
     37 H19          2.5290    -2.5560    -0.4210 hn         1 49R       0.472000
     38 H20         -0.9580     1.0180    -1.0780 hn         1 49R       0.322500
@<TRIPOS>BOND
     1     1     2 ar  
     2     1     3 ar  
     3     1    19 1   
     4     2     4 ar  
     5     2    20 1   
     6     3     5 ar  
     7     3    21 1   
     8     4     6 ar  
     9     4    22 1   
    10     5     6 ar  
    11     5     8 1   
    12     6    15 1   
    13     7    16 1   
    14     7    17 2   
    15     7    18 1   
    16     8    10 1   
    17     8    23 1   
    18     8    24 1   
    19     9    10 1   
    20     9    15 1   
    21     9    25 1   
    22     9    26 1   
    23    10    16 1   
    24    10    27 1   
    25    11    14 1   
    26    11    28 1   
    27    11    29 1   
    28    11    30 1   
    29    12    14 1   
    30    12    31 1   
    31    12    32 1   
    32    12    33 1   
    33    13    14 1   
    34    13    34 1   
    35    13    35 1   
    36    13    36 1   
    37    14    18 1   
    38    15    37 1   
    39    16    38 1   
@<TRIPOS>SUBSTRUCTURE
     1 49R         1 TEMP              0 ****  ****    0 ROOT
