@<TRIPOS>MOLECULE
49R
   38    39     1     0     0
SMALL
No Charge or Current Charge


@<TRIPOS>ATOM
      1 C17          5.3100     1.2900     0.0460 ca         1 49R      -0.157000
      2 C18          5.6580    -0.0710     0.0740 ca         1 49R      -0.068000
      3 C12          3.9610     1.6730    -0.0460 ca         1 49R      -0.067000
      4 C13          4.6530    -1.0510     0.0080 ca         1 49R      -0.181000
      5 C5           2.9500     0.6940    -0.1060 ca         1 49R      -0.148300
      6 C4           3.3050    -0.6740    -0.0840 ca         1 49R       0.312000
      7 C1          -2.0220    -0.1740     0.3590 c          1 49R       0.650100
      8 C8           1.4770     1.1220    -0.2250 c6         1 49R      -0.033100
      9 C11          0.9150    -1.3340    -0.5040 c6         1 49R       0.187800
     10 C9           0.4850    -0.0030     0.1810 c6         1 49R       0.120700
     11 C14         -4.7350     0.3980     1.5950 c3         1 49R      -0.108433
     12 C15         -4.7240    -1.4140    -0.2510 c3         1 49R      -0.108433
     13 C16         -5.3250     0.9870    -0.7990 c3         1 49R      -0.108433
     14 C10         -4.4650     0.0740     0.1030 c3         1 49R       0.225000
     15 N2           2.3110    -1.6510    -0.1420 nu         1 49R      -0.945200
     16 N3          -0.8930     0.3700    -0.1750 ns         1 49R      -0.508900
     17 O7          -2.0310    -1.0440     1.2140 o          1 49R      -0.546000
     18 O6          -3.1010     0.4230    -0.2320 os         1 49R      -0.482100
     19 H1           6.0870     2.0490     0.0940 ha         1 49R       0.114000
     20 H2           6.7030    -0.3650     0.1450 ha         1 49R       0.110000
     21 H3           3.7010     2.7300    -0.0710 ha         1 49R       0.106000
     22 H4           4.9240    -2.1030     0.0300 ha         1 49R       0.110000
     23 H5           1.2910     2.0100     0.3940 hc         1 49R       0.051200
     24 H6           1.2850     1.4230    -1.2640 hc         1 49R       0.051200
     25 H7           0.2400    -2.1500    -0.2060 h1         1 49R       0.044200
     26 H8           0.8270    -1.2140    -1.5950 h1         1 49R       0.044200
     27 H9           0.5400    -0.1440     1.2700 h1         1 49R       0.095700
     28 H10         -4.2440    -0.3150     2.2650 hc         1 49R       0.049367
     29 H11         -4.3830     1.4070     1.8440 hc         1 49R       0.049367
     30 H12         -5.8100     0.3540     1.8060 hc         1 49R       0.049367
     31 H13         -5.7980    -1.6320    -0.2170 hc         1 49R       0.049367
     32 H14         -4.3650    -1.6420    -1.2620 hc         1 49R       0.049367
     33 H15         -4.2330    -2.0950     0.4520 hc         1 49R       0.049367
     34 H16         -5.1200     2.0440    -0.5910 hc         1 49R       0.049367
     35 H17         -5.1130     0.8000    -1.8580 hc         1 49R       0.049367
     36 H18         -6.3930     0.8080    -0.6290 hc         1 49R       0.049367
     37 H19          2.6260    -2.6220    -0.1820 hn         1 49R       0.472000
     38 H20         -1.0440     1.0830    -0.8770 hn         1 49R       0.322500
@<TRIPOS>BOND
     1     1     2 ar  
     2     1     3 ar  
     3     1    19 1   
     4     2     4 ar  
     5     2    20 1   
     6     3     5 ar  
     7     3    21 1   
     8     4     6 ar  
     9     4    22 1   
    10     5     6 ar  
    11     5     8 1   
    12     6    15 1   
    13     7    16 1   
    14     7    17 2   
    15     7    18 1   
    16     8    10 1   
    17     8    23 1   
    18     8    24 1   
    19     9    10 1   
    20     9    15 1   
    21     9    25 1   
    22     9    26 1   
    23    10    16 1   
    24    10    27 1   
    25    11    14 1   
    26    11    28 1   
    27    11    29 1   
    28    11    30 1   
    29    12    14 1   
    30    12    31 1   
    31    12    32 1   
    32    12    33 1   
    33    13    14 1   
    34    13    34 1   
    35    13    35 1   
    36    13    36 1   
    37    14    18 1   
    38    15    37 1   
    39    16    38 1   
@<TRIPOS>SUBSTRUCTURE
     1 49R         1 TEMP              0 ****  ****    0 ROOT
