@<TRIPOS>MOLECULE
49S
   28    28     1     0     0
SMALL
No Charge or Current Charge


@<TRIPOS>ATOM
      1 C8          -3.5390     0.0940    -2.1450 c3         1 49S      -0.177100
      2 C7          -3.0640    -0.4500    -0.8020 c          1 49S       0.612100
      3 O7          -3.7250    -1.2410    -0.1440 o          1 49S      -0.635100
      4 N2          -1.8490     0.0360    -0.3860 ns         1 49S      -0.468900
      5 C2          -1.1270    -0.3570     0.8520 c6         1 49S       0.095700
      6 C3          -0.0800    -1.4900     0.6030 c6         1 49S       0.150300
      7 O3          -0.6530    -2.6410    -0.0370 oh         1 49S      -0.658000
      8 C1          -0.3600     0.8470     1.4900 c6         1 49S       0.367300
      9 O1          -1.1930     1.9790     1.6570 oh         1 49S      -0.644000
     10 O5           0.6860     1.2880     0.6170 os         1 49S      -0.451000
     11 C5           1.7390     0.2960     0.3930 c6         1 49S      -0.009700
     12 C6           2.9340     0.8350    -0.4700 c          1 49S       0.731000
     13 OAK          2.7130     1.8200    -1.1660 o          1 49S      -0.701000
     14 O6           4.0430     0.6910     0.0300 o          1 49S      -0.701000
     15 C4           1.1170    -0.9740    -0.2580 c6         1 49S       0.126300
     16 O4           2.0900    -2.0260    -0.4380 oh         1 49S      -0.789000
     17 H1          -2.7730    -0.1070    -2.9030 hc         1 49S       0.051033
     18 H2          -4.5160    -0.3050    -2.4420 hc         1 49S       0.051033
     19 H3          -3.5460     1.1890    -2.1060 hc         1 49S       0.051033
     20 H4          -1.4070     0.7180    -0.9900 hn         1 49S       0.329500
     21 H5          -1.8600    -0.7160     1.5880 h1         1 49S       0.085700
     22 H6           0.3180    -1.7900     1.5840 h1         1 49S       0.026700
     23 H7           0.1060    -3.0580    -0.5070 ho         1 49S       0.452000
     24 H8           0.0690     0.5550     2.4600 h2         1 49S       0.009700
     25 H9          -0.6180     2.7240     1.3850 ho         1 49S       0.450000
     26 H10          2.1510     0.0240     1.3760 h1         1 49S       0.026700
     27 H12          0.7250    -0.6790    -1.2440 h1         1 49S       0.040700
     28 H13          2.6260    -2.0860     0.3920 ho         1 49S       0.577000
@<TRIPOS>BOND
     1     1     2 1   
     2     1    17 1   
     3     1    18 1   
     4     1    19 1   
     5     2     3 2   
     6     2     4 1   
     7     4     5 1   
     8     4    20 1   
     9     5     6 1   
    10     5     8 1   
    11     5    21 1   
    12     6     7 1   
    13     6    15 1   
    14     6    22 1   
    15     7    23 1   
    16     8     9 1   
    17     8    10 1   
    18     8    24 1   
    19     9    25 1   
    20    10    11 1   
    21    11    12 1   
    22    11    15 1   
    23    11    26 1   
    24    12    13 1   
    25    12    14 1   
    26    15    16 1   
    27    15    27 1   
    28    16    28 1   
@<TRIPOS>SUBSTRUCTURE
     1 49S         1 TEMP              0 ****  ****    0 ROOT
