@<TRIPOS>MOLECULE
49S
   28    28     1     0     0
SMALL
bcc


@<TRIPOS>ATOM
      1 C8          -3.4370     0.1230    -2.1590 c3         1 49S      -0.177100
      2 C7          -2.9960    -0.3180    -0.7850 c          1 49S       0.679100
      3 O7          -3.7630    -0.8850    -0.0190 o          1 49S      -0.635100
      4 N2          -1.7200    -0.0280    -0.4790 ns         1 49S      -0.535900
      5 C2          -1.0950    -0.3310     0.7840 c6         1 49S       0.095700
      6 C3          -0.0720    -1.4630     0.6740 c6         1 49S       0.127100
      7 O3          -0.7130    -2.5880     0.1320 oh         1 49S      -0.595800
      8 C1          -0.3820     0.9010     1.3380 c6         1 49S       0.320900
      9 O1          -1.2760     1.9450     1.4180 oh         1 49S      -0.581800
     10 O5           0.6690     1.2730     0.4760 os         1 49S      -0.404600
     11 C5           1.6840     0.3000     0.4150 c6         1 49S      -0.032900
     12 C6           2.8640     0.8210    -0.4270 c          1 49S       0.941600
     13 OAK          2.9160     2.0210    -0.6990 o          1 49S      -0.806300
     14 O6           3.6970    -0.0660    -0.7550 o          1 49S      -0.806300
     15 C4           1.1330    -1.0210    -0.1470 c6         1 49S       0.103100
     16 O4           2.1060    -2.0310    -0.1040 oh         1 49S      -0.666800
     17 H1          -2.6420     0.5740    -2.7500 hc         1 49S       0.051033
     18 H2          -3.8320    -0.7320    -2.7060 hc         1 49S       0.051033
     19 H3          -4.2450     0.8480    -2.0620 hc         1 49S       0.051033
     20 H4          -1.1710     0.4660    -1.1650 hn         1 49S       0.329500
     21 H5          -1.8760    -0.6300     1.4850 h1         1 49S       0.085700
     22 H6           0.2880    -1.6720     1.6950 h1         1 49S       0.026700
     23 H7          -0.0720    -3.3060     0.0920 ho         1 49S       0.413000
     24 H8           0.0360     0.6450     2.3280 h2         1 49S       0.009700
     25 H9          -0.8920     2.6460     1.9560 ho         1 49S       0.411000
     26 H10          2.0710     0.0910     1.4300 h1         1 49S       0.026700
     27 H12          0.8000    -0.8430    -1.1850 h1         1 49S       0.040700
     28 H13          2.9250    -1.5640    -0.3930 ho         1 49S       0.478000
@<TRIPOS>BOND
     1     1     2 1   
     2     1    17 1   
     3     1    18 1   
     4     1    19 1   
     5     2     3 2   
     6     2     4 1   
     7     4     5 1   
     8     4    20 1   
     9     5     6 1   
    10     5     8 1   
    11     5    21 1   
    12     6     7 1   
    13     6    15 1   
    14     6    22 1   
    15     7    23 1   
    16     8     9 1   
    17     8    10 1   
    18     8    24 1   
    19     9    25 1   
    20    10    11 1   
    21    11    12 1   
    22    11    15 1   
    23    11    26 1   
    24    12    13 1   
    25    12    14 1   
    26    15    16 1   
    27    15    27 1   
    28    16    28 1   
@<TRIPOS>SUBSTRUCTURE
     1 49S         1 TEMP              0 ****  ****    0 ROOT
