@<TRIPOS>MOLECULE
49T
   29    29     1     0     0
SMALL
No Charge or Current Charge


@<TRIPOS>ATOM
      1 C1          -0.0790     1.3170     0.1340 c6         1 49T       0.372300
      2 C2           0.4860    -0.1450     0.1000 c6         1 49T       0.096700
      3 N2           1.8920    -0.1970    -0.3720 ns         1 49T      -0.498900
      4 C7           2.9860     0.2060     0.3520 c          1 49T       0.610100
      5 O7           2.8870     0.6640     1.4800 o          1 49T      -0.594100
      6 C8           4.3240     0.0410    -0.3570 c3         1 49T      -0.180100
      7 O5          -1.4680     1.3280     0.5200 os         1 49T      -0.468000
      8 C5          -2.3460     0.5380    -0.3170 c6         1 49T       0.137300
      9 C6          -3.7920     0.7760     0.1910 c3         1 49T      -0.095100
     10 C4          -1.9150    -0.9640    -0.2970 c6         1 49T       0.109300
     11 O4          -2.0240    -1.5590     1.0180 oh         1 49T      -0.691000
     12 C3          -0.4370    -1.0520    -0.7780 c6         1 49T       0.166300
     13 O3          -0.0080    -2.4220    -0.7240 oh         1 49T      -0.628000
     14 O1           0.0140     1.9700    -1.1340 oh         1 49T      -0.692000
     15 H1           0.4970     1.8900     0.8780 h2         1 49T       0.078700
     16 H2           0.4580    -0.5250     1.1310 h1         1 49T       0.124700
     17 H3           2.0720    -0.5710    -1.2960 hn         1 49T       0.316500
     18 H4           5.1700     0.3740     0.2550 hc         1 49T       0.058033
     19 H5           4.4360    -1.0040    -0.6680 hc         1 49T       0.058033
     20 H6           4.2860     0.5680    -1.3170 hc         1 49T       0.058033
     21 H7          -2.2960     0.9090    -1.3510 h1         1 49T       0.048700
     22 H8          -4.0780     1.8270     0.0660 hc         1 49T       0.046700
     23 H9          -4.5120     0.1710    -0.3740 hc         1 49T       0.046700
     24 H10         -3.8990     0.5280     1.2530 hc         1 49T       0.046700
     25 H11         -2.5490    -1.5150    -1.0080 h1         1 49T       0.028700
     26 H12         -2.9380    -1.3850     1.3410 ho         1 49T       0.503000
     27 H13         -0.3890    -0.6940    -1.8170 h1         1 49T       0.038700
     28 H14         -0.4920    -2.7930     0.0490 ho         1 49T       0.442000
     29 H15         -0.4570     2.8210    -1.0120 ho         1 49T       0.456000
@<TRIPOS>BOND
     1     1     2 1   
     2     1     7 1   
     3     1    14 1   
     4     1    15 1   
     5     2     3 1   
     6     2    12 1   
     7     2    16 1   
     8     3     4 1   
     9     3    17 1   
    10     4     5 2   
    11     4     6 1   
    12     6    18 1   
    13     6    19 1   
    14     6    20 1   
    15     7     8 1   
    16     8     9 1   
    17     8    10 1   
    18     8    21 1   
    19     9    22 1   
    20     9    23 1   
    21     9    24 1   
    22    10    11 1   
    23    10    12 1   
    24    10    25 1   
    25    11    26 1   
    26    12    13 1   
    27    12    27 1   
    28    13    28 1   
    29    14    29 1   
@<TRIPOS>SUBSTRUCTURE
     1 49T         1 TEMP              0 ****  ****    0 ROOT
