@<TRIPOS>MOLECULE
49T
   29    29     1     0     0
SMALL
bcc


@<TRIPOS>ATOM
      1 C1          -0.2300     1.5040    -0.0510 c6         1 49T       0.325900
      2 C2           0.4470     0.1440     0.1320 c6         1 49T       0.096700
      3 N2           1.8060     0.1980    -0.3350 ns         1 49T      -0.565900
      4 C7           2.8690    -0.2340     0.3710 c          1 49T       0.677100
      5 O7           2.7920    -0.6340     1.5230 o          1 49T      -0.594100
      6 C8           4.1840    -0.1890    -0.3640 c3         1 49T      -0.180100
      7 O5          -1.5680     1.4640     0.3420 os         1 49T      -0.421600
      8 C5          -2.3670     0.4880    -0.3060 c6         1 49T       0.114100
      9 C6          -3.7840     0.6610     0.2010 c3         1 49T      -0.095100
     10 C4          -1.8030    -0.9170    -0.0740 c6         1 49T       0.086100
     11 O4          -1.8100    -1.3040     1.2730 oh         1 49T      -0.568800
     12 C3          -0.3560    -0.9520    -0.5680 c6         1 49T       0.143100
     13 O3           0.2910    -2.1680    -0.3230 oh         1 49T      -0.565800
     14 O1          -0.0790     1.8780    -1.3890 oh         1 49T      -0.629800
     15 H1           0.2430     2.2340     0.6140 h2         1 49T       0.078700
     16 H2           0.4720    -0.0730     1.2010 h1         1 49T       0.124700
     17 H3           1.9530     0.4980    -1.2840 hn         1 49T       0.316500
     18 H4           4.9400     0.2790     0.2640 hc         1 49T       0.058033
     19 H5           4.5150    -1.2070    -0.5670 hc         1 49T       0.058033
     20 H6           4.1460     0.3440    -1.3120 hc         1 49T       0.058033
     21 H7          -2.3770     0.6570    -1.3910 h1         1 49T       0.048700
     22 H8          -4.1650     1.6470    -0.0620 hc         1 49T       0.046700
     23 H9          -4.4450    -0.0770    -0.2540 hc         1 49T       0.046700
     24 H10         -3.8560     0.5720     1.2860 hc         1 49T       0.046700
     25 H11         -2.4010    -1.6090    -0.6930 h1         1 49T       0.028700
     26 H12         -2.7140    -1.3070     1.5940 ho         1 49T       0.404000
     27 H13         -0.3870    -0.7320    -1.6480 h1         1 49T       0.038700
     28 H14         -0.1920    -2.8730    -0.7610 ho         1 49T       0.403000
     29 H15         -0.2930     2.8120    -1.4730 ho         1 49T       0.417000
@<TRIPOS>BOND
     1     1     2 1   
     2     1     7 1   
     3     1    14 1   
     4     1    15 1   
     5     2     3 1   
     6     2    12 1   
     7     2    16 1   
     8     3     4 1   
     9     3    17 1   
    10     4     5 2   
    11     4     6 1   
    12     6    18 1   
    13     6    19 1   
    14     6    20 1   
    15     7     8 1   
    16     8     9 1   
    17     8    10 1   
    18     8    21 1   
    19     9    22 1   
    20     9    23 1   
    21     9    24 1   
    22    10    11 1   
    23    10    12 1   
    24    10    25 1   
    25    11    26 1   
    26    12    13 1   
    27    12    27 1   
    28    13    28 1   
    29    14    29 1   
@<TRIPOS>SUBSTRUCTURE
     1 49T         1 TEMP              0 ****  ****    0 ROOT
