@<TRIPOS>MOLECULE
49U
   57    59     1     0     0
SMALL
abcg2


@<TRIPOS>ATOM
      1 C47          6.4500    -2.5920     0.0270 c5         1 49U      -0.078400
      2 C45          5.2670    -1.6970    -0.3380 c5         1 49U      -0.077400
      3 C44          4.6880    -1.3010     1.0200 c5         1 49U      -0.071700
      4 C49          4.7600    -2.6110     1.8150 c5         1 49U      -0.077400
      5 C48          5.9820    -3.3790     1.2670 c5         1 49U      -0.078400
      6 C21          3.2930    -0.6940     0.9810 c3         1 49U      -0.057400
      7 C5           3.2670     0.6400     0.2510 c3         1 49U      -0.149400
      8 C14          1.9050     1.2940     0.2130 c          1 49U       0.615100
      9 O32          0.9230     0.8140     0.7700 o          1 49U      -0.616100
     10 N1           1.8190     2.4490    -0.4710 n          1 49U      -0.405800
     11 C1           0.5530     3.1400    -0.6030 c5         1 49U       0.031700
     12 C7          -0.5000     2.2650    -1.2690 c          1 49U       0.602100
     13 O22         -0.2220     1.5030    -2.1790 o          1 49U      -0.584100
     14 C2           0.8860     4.3460    -1.4980 c5         1 49U      -0.086400
     15 C3           2.3780     4.5620    -1.2690 c5         1 49U      -0.093400
     16 C4           2.9150     3.1450    -1.1330 c5         1 49U       0.108000
     17 N23         -1.7520     2.4810    -0.8320 ns         1 49U      -0.502900
     18 C24         -2.9160     1.8690    -1.4130 c3         1 49U       0.149300
     19 C25         -3.3650     0.5900    -0.7460 ca         1 49U      -0.094300
     20 C30         -4.6330     0.0930    -1.0340 ca         1 49U      -0.104500
     21 C29         -5.0870    -1.0820    -0.4590 ca         1 49U      -0.087000
     22 C28         -4.2720    -1.8000     0.4170 ca         1 49U      -0.199900
     23 C9          -4.7300    -3.0770     1.0310 ce         1 49U       0.660800
     24 N46         -3.9720    -4.0750     1.2820 n2         1 49U      -0.846100
     25 N47         -6.0680    -3.1470     1.2840 nv         1 49U      -1.032200
     26 C27         -3.0040    -1.3030     0.7030 ca         1 49U      -0.087000
     27 C26         -2.5560    -0.1200     0.1330 ca         1 49U      -0.104500
     28 H47          7.3120    -1.9690     0.2770 hc         1 49U       0.040200
     29 H47A         6.7580    -3.2420    -0.7930 hc         1 49U       0.040200
     30 H45          4.5170    -2.2660    -0.9000 hc         1 49U       0.042700
     31 H45A         5.5580    -0.8440    -0.9550 hc         1 49U       0.042700
     32 H44          5.3740    -0.5780     1.4820 hc         1 49U       0.042700
     33 H49          4.8200    -2.4330     2.8900 hc         1 49U       0.042700
     34 H49A         3.8460    -3.1880     1.6440 hc         1 49U       0.042700
     35 H48          6.7780    -3.4610     2.0080 hc         1 49U       0.040200
     36 H48A         5.7030    -4.3980     0.9970 hc         1 49U       0.040200
     37 H21          2.9260    -0.5600     2.0020 hc         1 49U       0.056700
     38 H21A         2.6110    -1.4010     0.4970 hc         1 49U       0.056700
     39 H5           3.6210     0.5200    -0.7780 hc         1 49U       0.058200
     40 H5A          3.9750     1.3300     0.7230 hc         1 49U       0.058200
     41 H1           0.2010     3.4800     0.3780 h1         1 49U       0.063700
     42 H2           0.7050     4.1030    -2.5460 hc         1 49U       0.062200
     43 H2A          0.2790     5.2130    -1.2440 hc         1 49U       0.062200
     44 H3           2.8550     5.1100    -2.0800 hc         1 49U       0.056200
     45 H3A          2.5460     5.1150    -0.3430 hc         1 49U       0.056200
     46 H4           3.1290     2.7010    -2.1100 h1         1 49U       0.051700
     47 H4A          3.8270     3.1070    -0.5390 h1         1 49U       0.051700
     48 HN23        -1.8870     3.0810    -0.0340 hn         1 49U       0.315500
     49 H24         -3.7300     2.5950    -1.3830 h1         1 49U       0.062700
     50 H24A        -2.7170     1.6740    -2.4690 h1         1 49U       0.062700
     51 H30         -5.2790     0.6300    -1.7190 ha         1 49U       0.127500
     52 H29         -6.0760    -1.4450    -0.7070 ha         1 49U       0.121500
     53 HN46        -3.0330    -3.9070     0.9420 hn         1 49U       0.391400
     54 HN47        -6.5560    -2.2940     1.5030 hn         1 49U       0.466000
     55 HN4A        -6.3740    -3.9450     1.8190 hn         1 49U       0.466000
     56 H27         -2.3590    -1.8290     1.3960 ha         1 49U       0.121500
     57 H26         -1.5710     0.2490     0.3900 ha         1 49U       0.127500
@<TRIPOS>BOND
     1     1     2 1   
     2     1     5 1   
     3     1    28 1   
     4     1    29 1   
     5     2     3 1   
     6     2    30 1   
     7     2    31 1   
     8     3     4 1   
     9     3     6 1   
    10     3    32 1   
    11     4     5 1   
    12     4    33 1   
    13     4    34 1   
    14     5    35 1   
    15     5    36 1   
    16     6     7 1   
    17     6    37 1   
    18     6    38 1   
    19     7     8 1   
    20     7    39 1   
    21     7    40 1   
    22     8     9 2   
    23     8    10 1   
    24    10    11 1   
    25    10    16 1   
    26    11    12 1   
    27    11    14 1   
    28    11    41 1   
    29    12    13 2   
    30    12    17 1   
    31    14    15 1   
    32    14    42 1   
    33    14    43 1   
    34    15    16 1   
    35    15    44 1   
    36    15    45 1   
    37    16    46 1   
    38    16    47 1   
    39    17    18 1   
    40    17    48 1   
    41    18    19 1   
    42    18    49 1   
    43    18    50 1   
    44    19    20 ar  
    45    19    27 ar  
    46    20    21 ar  
    47    20    51 1   
    48    21    22 ar  
    49    21    52 1   
    50    22    23 1   
    51    22    26 ar  
    52    23    24 2   
    53    23    25 1   
    54    24    53 1   
    55    25    54 1   
    56    25    55 1   
    57    26    27 ar  
    58    26    56 1   
    59    27    57 1   
@<TRIPOS>SUBSTRUCTURE
     1 49U         1 TEMP              0 ****  ****    0 ROOT
