@<TRIPOS>MOLECULE
49U
   57    59     1     0     0
SMALL
No Charge or Current Charge


@<TRIPOS>ATOM
      1 C47          7.2150    -2.1550     0.1860 c5         1 49U      -0.078400
      2 C45          5.9080    -1.4530    -0.2820 c5         1 49U      -0.077400
      3 C44          5.0620    -1.4190     1.0180 c5         1 49U      -0.071700
      4 C49          5.2400    -2.8910     1.4650 c5         1 49U      -0.077400
      5 C48          6.7830    -3.0580     1.3870 c5         1 49U      -0.078400
      6 C21          3.5860    -0.9880     0.8350 c3         1 49U      -0.057400
      7 C5           3.4060     0.4790     0.3690 c3         1 49U      -0.149400
      8 C14          1.9480     0.9560     0.2100 c          1 49U       0.615100
      9 O32          1.0060     0.2730     0.5940 o          1 49U      -0.616100
     10 N1           1.7200     2.2110    -0.3960 n          1 49U      -0.405800
     11 C1           0.3530     2.7200    -0.7070 c5         1 49U       0.031700
     12 C7          -0.5230     1.7910    -1.6110 c          1 49U       0.602100
     13 O22         -0.1390     0.8990    -2.3590 o          1 49U      -0.584100
     14 C2           0.6890     4.0130    -1.5120 c5         1 49U      -0.086400
     15 C3           1.9770     4.5060    -0.8120 c5         1 49U      -0.093400
     16 C4           2.7890     3.1940    -0.6800 c5         1 49U       0.108000
     17 N23         -1.8510     2.1280    -1.4550 ns         1 49U      -0.502900
     18 C24         -2.9630     1.4510    -2.1230 c3         1 49U       0.149300
     19 C25         -3.6190     0.4290    -1.2060 ca         1 49U      -0.094300
     20 C30         -4.7880     0.7530    -0.4950 ca         1 49U      -0.104500
     21 C29         -5.3920    -0.1920     0.3530 ca         1 49U      -0.087000
     22 C28         -4.8280    -1.4800     0.5200 ca         1 49U      -0.199900
     23 C9          -5.4930    -2.4990     1.3900 ce         1 49U       0.660800
     24 N46         -5.3330    -3.7490     1.2500 n2         1 49U      -0.846100
     25 N47         -6.1680    -2.0630     2.4680 nv         1 49U      -1.032200
     26 C27         -3.6620    -1.8020    -0.2130 ca         1 49U      -0.087000
     27 C26         -3.0610    -0.8540    -1.0600 ca         1 49U      -0.104500
     28 H47          7.9650    -1.4220     0.5060 hc         1 49U       0.040200
     29 H47A         7.6690    -2.7380    -0.6250 hc         1 49U       0.040200
     30 H45          5.4080    -2.0270    -1.0720 hc         1 49U       0.042700
     31 H45A         6.1040    -0.4530    -0.6850 hc         1 49U       0.042700
     32 H44          5.5050    -0.7360     1.7550 hc         1 49U       0.042700
     33 H49          4.8560    -3.0730     2.4750 hc         1 49U       0.042700
     34 H49A         4.7260    -3.5870     0.7910 hc         1 49U       0.042700
     35 H48          7.2600    -2.7210     2.3140 hc         1 49U       0.040200
     36 H48A         7.0720    -4.1060     1.2430 hc         1 49U       0.040200
     37 H21          3.0560    -1.1200     1.7860 hc         1 49U       0.056700
     38 H21A         3.0940    -1.6510     0.1130 hc         1 49U       0.056700
     39 H5           3.9310     0.6760    -0.5720 hc         1 49U       0.058200
     40 H5A          3.9090     1.1740     1.0500 hc         1 49U       0.058200
     41 H1          -0.1870     2.9480     0.2210 h1         1 49U       0.063700
     42 H2           0.8840     3.7910    -2.5690 hc         1 49U       0.062200
     43 H2A         -0.1210     4.7510    -1.4790 hc         1 49U       0.062200
     44 H3           2.5090     5.2720    -1.3860 hc         1 49U       0.056200
     45 H3A          1.7520     4.9300     0.1740 hc         1 49U       0.056200
     46 H4           3.3050     2.9430    -1.6170 h1         1 49U       0.051700
     47 H4A          3.5320     3.2620     0.1250 h1         1 49U       0.051700
     48 HN23        -2.0650     2.8780    -0.8090 hn         1 49U       0.315500
     49 H24         -3.7010     2.2050    -2.4260 h1         1 49U       0.062700
     50 H24A        -2.6060     0.9560    -3.0360 h1         1 49U       0.062700
     51 H30         -5.2370     1.7380    -0.6030 ha         1 49U       0.127500
     52 H29         -6.3080     0.0820     0.8720 ha         1 49U       0.121500
     53 HN46        -4.8390    -3.9010     0.3610 hn         1 49U       0.391400
     54 HN47        -5.9030    -1.1430     2.7950 hn         1 49U       0.466000
     55 HN4A        -6.3050    -2.7670     3.1830 hn         1 49U       0.466000
     56 H27         -3.2000    -2.7830    -0.1190 ha         1 49U       0.121500
     57 H26         -2.1560    -1.1180    -1.6030 ha         1 49U       0.127500
@<TRIPOS>BOND
     1     1     2 1   
     2     1     5 1   
     3     1    28 1   
     4     1    29 1   
     5     2     3 1   
     6     2    30 1   
     7     2    31 1   
     8     3     4 1   
     9     3     6 1   
    10     3    32 1   
    11     4     5 1   
    12     4    33 1   
    13     4    34 1   
    14     5    35 1   
    15     5    36 1   
    16     6     7 1   
    17     6    37 1   
    18     6    38 1   
    19     7     8 1   
    20     7    39 1   
    21     7    40 1   
    22     8     9 2   
    23     8    10 1   
    24    10    11 1   
    25    10    16 1   
    26    11    12 1   
    27    11    14 1   
    28    11    41 1   
    29    12    13 2   
    30    12    17 1   
    31    14    15 1   
    32    14    42 1   
    33    14    43 1   
    34    15    16 1   
    35    15    44 1   
    36    15    45 1   
    37    16    46 1   
    38    16    47 1   
    39    17    18 1   
    40    17    48 1   
    41    18    19 1   
    42    18    49 1   
    43    18    50 1   
    44    19    20 ar  
    45    19    27 ar  
    46    20    21 ar  
    47    20    51 1   
    48    21    22 ar  
    49    21    52 1   
    50    22    23 1   
    51    22    26 ar  
    52    23    24 2   
    53    23    25 1   
    54    24    53 1   
    55    25    54 1   
    56    25    55 1   
    57    26    27 ar  
    58    26    56 1   
    59    27    57 1   
@<TRIPOS>SUBSTRUCTURE
     1 49U         1 TEMP              0 ****  ****    0 ROOT
