@<TRIPOS>MOLECULE
49V
   25    25     1     0     0
SMALL
bcc


@<TRIPOS>ATOM
      1 C1           0.2130     0.6980    -1.3640 c6         1 49V       0.318900
      2 O5          -0.8720     1.0320    -0.5090 os         1 49V      -0.329900
      3 C5          -1.6380    -0.0030    -0.0860 ce         1 49V       0.054900
      4 C6          -2.9590     0.4280     0.5450 c          1 49V       0.932800
      5 O6          -3.6930    -0.4890     0.9550 o          1 49V      -0.799300
      6 O9          -3.1690     1.6510     0.5900 o          1 49V      -0.799300
      7 C4          -1.2540    -1.2770    -0.1980 c2         1 49V      -0.397200
      8 C3           0.0690    -1.6820    -0.7840 c6         1 49V       0.187300
      9 O3           0.6880    -2.7200    -0.0620 oh         1 49V      -0.597800
     10 C2           1.0030    -0.4720    -0.7880 c6         1 49V       0.093700
     11 N2           1.4890    -0.1730     0.5330 ns         1 49V      -0.530900
     12 C7           2.7760     0.0910     0.8220 c          1 49V       0.679100
     13 O7           3.6660     0.1040    -0.0180 o          1 49V      -0.639100
     14 C8           3.0580     0.3800     2.2750 c3         1 49V      -0.176100
     15 H1          -0.2040     0.3980    -2.3380 h2         1 49V       0.018700
     16 H4          -1.9330    -2.0470     0.1420 ha         1 49V       0.157000
     17 H5          -0.0730    -1.9860    -1.8310 h1         1 49V       0.016700
     18 H6           0.1410    -3.5070    -0.1480 ho         1 49V       0.399000
     19 H7           1.8590    -0.6710    -1.4330 h1         1 49V       0.084700
     20 H8           0.8270    -0.1920     1.2930 hn         1 49V       0.332500
     21 H9           2.1980     0.2380     2.9270 hc         1 49V       0.051700
     22 H10          3.8670    -0.2610     2.6230 hc         1 49V       0.051700
     23 H11          3.3960     1.4120     2.3770 hc         1 49V       0.051700
     24 O1           1.0260     1.8000    -1.4690 oh         1 49V      -0.572800
     25 H2           0.6040     2.4550    -2.0360 ho         1 49V       0.411000
@<TRIPOS>BOND
     1     1     2 1   
     2     1    10 1   
     3     1    15 1   
     4     1    24 1   
     5     2     3 1   
     6     3     4 1   
     7     3     7 2   
     8     4     5 1   
     9     4     6 1   
    10     7     8 1   
    11     7    16 1   
    12     8     9 1   
    13     8    10 1   
    14     8    17 1   
    15     9    18 1   
    16    10    11 1   
    17    10    19 1   
    18    11    12 1   
    19    11    20 1   
    20    12    13 2   
    21    12    14 1   
    22    14    21 1   
    23    14    22 1   
    24    14    23 1   
    25    24    25 1   
@<TRIPOS>SUBSTRUCTURE
     1 49V         1 TEMP              0 ****  ****    0 ROOT
