@<TRIPOS>MOLECULE
49V
   25    25     1     0     0
SMALL
No Charge or Current Charge


@<TRIPOS>ATOM
      1 C1           0.3270     0.6360    -1.4600 c6         1 49V       0.365300
      2 O5          -0.7980     1.0470    -0.6650 os         1 49V      -0.353100
      3 C5          -1.6410     0.0710    -0.1360 ce         1 49V       0.054900
      4 C6          -2.9570     0.5760     0.4830 c          1 49V       0.722200
      5 O6          -3.7390    -0.2400     0.9600 o          1 49V      -0.694000
      6 O9          -3.1920     1.7800     0.4820 o          1 49V      -0.694000
      7 C4          -1.2970    -1.2460    -0.1870 c2         1 49V      -0.447200
      8 C3           0.0030    -1.7320    -0.7860 c6         1 49V       0.210500
      9 O3           0.4530    -2.8430    -0.0140 oh         1 49V      -0.660000
     10 C2           1.0570    -0.5870    -0.8230 c6         1 49V       0.093700
     11 N2           1.6010    -0.3000     0.5290 ns         1 49V      -0.463900
     12 C7           2.8650     0.1510     0.8160 c          1 49V       0.612100
     13 O7           3.7240     0.3100    -0.0410 o          1 49V      -0.639100
     14 C8           3.1250     0.4190     2.2940 c3         1 49V      -0.176100
     15 H1          -0.0340     0.3510    -2.4590 h2         1 49V       0.018700
     16 H4          -1.9670    -2.0060     0.2190 ha         1 49V       0.207000
     17 H5          -0.1930    -2.0550    -1.8190 h1         1 49V       0.016700
     18 H6          -0.2410    -3.5310    -0.0940 ho         1 49V       0.438000
     19 H7           1.8810    -0.8920    -1.4830 h1         1 49V       0.084700
     20 H8           0.9780    -0.4290     1.3150 hn         1 49V       0.332500
     21 H9           2.8890    -0.4840     2.8680 hc         1 49V       0.051700
     22 H10          4.1460     0.7670     2.4890 hc         1 49V       0.051700
     23 H11          2.3770     1.1310     2.6650 hc         1 49V       0.051700
     24 O1           1.1680     1.7780    -1.5740 oh         1 49V      -0.635000
     25 H2           0.5480     2.5370    -1.5600 ho         1 49V       0.450000
@<TRIPOS>BOND
     1     1     2 1   
     2     1    10 1   
     3     1    15 1   
     4     1    24 1   
     5     2     3 1   
     6     3     4 1   
     7     3     7 2   
     8     4     5 1   
     9     4     6 1   
    10     7     8 1   
    11     7    16 1   
    12     8     9 1   
    13     8    10 1   
    14     8    17 1   
    15     9    18 1   
    16    10    11 1   
    17    10    19 1   
    18    11    12 1   
    19    11    20 1   
    20    12    13 2   
    21    12    14 1   
    22    14    21 1   
    23    14    22 1   
    24    14    23 1   
    25    24    25 1   
@<TRIPOS>SUBSTRUCTURE
     1 49V         1 TEMP              0 ****  ****    0 ROOT
