@<TRIPOS>MOLECULE
49W
   92    95     1     0     0
SMALL
bcc


@<TRIPOS>ATOM
      1 O3          -0.2340    -2.1250    -1.7780 o          1 49W      -0.583100
      2 C15          0.0370    -1.3450    -0.8810 c          1 49W       0.677700
      3 C25          1.2520    -0.4760    -0.9470 ca         1 49W      -0.126600
      4 C24          1.2170     0.8660    -0.5860 ca         1 49W      -0.106000
      5 C26          2.4230    -1.0550    -1.4070 ca         1 49W      -0.119000
      6 C27          3.6100    -0.3200    -1.4550 ca         1 49W       0.164600
      7 N2           4.7970    -0.9220    -1.8430 nh         1 49W      -0.553800
      8 C30          5.0190    -2.2620    -1.5950 c2         1 49W       0.084000
      9 C31          6.0590    -2.9210    -2.1320 ce         1 49W      -0.236000
     10 C32          6.9200    -2.2170    -3.0620 ce         1 49W      -0.087000
     11 C29          6.8400    -0.8880    -3.1620 c2         1 49W      -0.217200
     12 C47          5.9290    -0.1030    -2.2630 c6         1 49W       0.268000
     13 C22          3.5670     1.0320    -1.0980 ca         1 49W      -0.147000
     14 C23          2.3830     1.6150    -0.6710 ca         1 49W      -0.114600
     15 C28          2.3230     3.0820    -0.3670 c          1 49W       0.676700
     16 N3           3.1040     3.5560     0.6220 n          1 49W      -0.470800
     17 C33          3.7960     2.7210     1.5950 c3         1 49W       0.098000
     18 C34          5.3150     2.7640     1.4840 c3         1 49W      -0.096400
     19 C35          5.9700     1.8830     2.5370 c3         1 49W      -0.089600
     20 C36          3.0790     4.9830     0.9080 c3         1 49W       0.098000
     21 C37          1.9540     5.3900     1.8530 c3         1 49W      -0.096400
     22 C38          2.0220     6.8730     2.1900 c3         1 49W      -0.089600
     23 O6           1.5810     3.7940    -1.0320 o          1 49W      -0.589100
     24 N1          -0.6940    -1.2010     0.2440 ns         1 49W      -0.558900
     25 C11         -1.7060    -2.1610     0.6450 c3         1 49W       0.067700
     26 C14         -1.1770    -3.0240     1.8030 c3         1 49W      -0.051100
     27 C19          0.1320    -3.6710     1.4480 ca         1 49W      -0.084300
     28 C20          1.3440    -3.1140     1.8460 ca         1 49W      -0.121000
     29 C21          2.5530    -3.6730     1.4490 ca         1 49W      -0.126500
     30 C16          2.5650    -4.8050     0.6460 ca         1 49W      -0.133000
     31 C17          1.3620    -5.3750     0.2480 ca         1 49W      -0.126500
     32 C18          0.1590    -4.8100     0.6450 ca         1 49W      -0.121000
     33 C10         -3.0330    -1.4790     0.9830 c3         1 49W       0.139100
     34 O2          -2.9010    -0.5610     2.0500 oh         1 49W      -0.592800
     35 C9          -3.6680    -0.8310    -0.2390 c3         1 49W       0.141800
     36 N4          -5.0080    -0.3850     0.0790 n7         1 49W      -0.824200
     37 C7          -5.8210     0.1070    -1.0270 c3         1 49W       0.155900
     38 C12         -5.0660     1.0690    -1.9640 c3         1 49W      -0.102100
     39 C13         -6.3330    -1.0970    -1.8240 c3         1 49W      -0.102100
     40 C3          -6.9920     0.8890    -0.4350 ca         1 49W       0.425600
     41 N5          -6.8770     1.3100     0.8180 nb         1 49W      -0.681000
     42 C1          -7.8530     2.0370     1.3540 ca         1 49W       0.411200
     43 C6          -9.0010     2.3900     0.6690 ca         1 49W      -0.251300
     44 C5          -9.1250     1.9620    -0.6460 ca         1 49W      -0.091000
     45 C4          -8.1110     1.2060    -1.2060 ca         1 49W      -0.241300
     46 H1           0.2950     1.3300    -0.2600 ha         1 49W       0.148000
     47 H2           2.4050    -2.0880    -1.7290 ha         1 49W       0.160000
     48 H3           4.3100    -2.7530    -0.9400 h4         1 49W       0.146000
     49 H4           6.2130    -3.9640    -1.9010 ha         1 49W       0.143000
     50 H5           7.6020    -2.7810    -3.6850 ha         1 49W       0.132000
     51 H6           7.4450    -0.3320    -3.8660 ha         1 49W       0.136000
     52 H7           5.5480     0.7670    -2.8000 h1         1 49W       0.043200
     53 H8           6.4810     0.2840    -1.3910 h1         1 49W       0.043200
     54 H9           4.4600     1.6400    -1.1420 ha         1 49W       0.142000
     55 H10          3.4980     3.0530     2.5950 h1         1 49W       0.052950
     56 H11          3.4470     1.6930     1.5050 h1         1 49W       0.052950
     57 H12          5.6240     2.4410     0.4870 hc         1 49W       0.046200
     58 H13          5.6690     3.7920     1.5950 hc         1 49W       0.046200
     59 H14          5.6760     2.1830     3.5440 hc         1 49W       0.035367
     60 H15          5.6880     0.8360     2.4090 hc         1 49W       0.035367
     61 H16          7.0560     1.9410     2.4780 hc         1 49W       0.035367
     62 H17          4.0430     5.2500     1.3470 h1         1 49W       0.052950
     63 H18          3.0040     5.5370    -0.0280 h1         1 49W       0.052950
     64 H19          0.9920     5.1540     1.3940 hc         1 49W       0.046200
     65 H20          2.0150     4.8010     2.7720 hc         1 49W       0.046200
     66 H21          2.9690     7.1260     2.6710 hc         1 49W       0.035367
     67 H22          1.9330     7.4870     1.2920 hc         1 49W       0.035367
     68 H23          1.2200     7.1610     2.8690 hc         1 49W       0.035367
     69 H24         -0.2670    -0.6680     0.9870 hn         1 49W       0.306500
     70 H25         -1.8830    -2.8170    -0.2090 h1         1 49W       0.089700
     71 H26         -1.0680    -2.4080     2.6990 hc         1 49W       0.062200
     72 H27         -1.9270    -3.7850     2.0280 hc         1 49W       0.062200
     73 H28          1.3490    -2.2350     2.4810 ha         1 49W       0.128500
     74 H29          3.4850    -3.2240     1.7680 ha         1 49W       0.131000
     75 H30          3.5050    -5.2470     0.3410 ha         1 49W       0.129000
     76 H31          1.3610    -6.2620    -0.3730 ha         1 49W       0.131000
     77 H32         -0.7750    -5.2580     0.3270 ha         1 49W       0.128500
     78 H33         -3.7120    -2.2580     1.3430 h1         1 49W       0.091700
     79 H34         -2.4550     0.2290     1.7240 ho         1 49W       0.398000
     80 H35         -3.0100    -0.0270    -0.6040 h1         1 49W       0.038700
     81 H36         -3.7080    -1.5760    -1.0390 h1         1 49W       0.038700
     82 H37         -4.9730     0.3250     0.8000 hn         1 49W       0.396800
     83 H39         -4.2440     0.5620    -2.4700 hc         1 49W       0.041533
     84 H40         -5.7250     1.4710    -2.7350 hc         1 49W       0.041533
     85 H41         -4.6530     1.9110    -1.4030 hc         1 49W       0.041533
     86 H42         -6.9410    -1.7470    -1.1940 hc         1 49W       0.041533
     87 H43         -6.9240    -0.8030    -2.6900 hc         1 49W       0.041533
     88 H44         -5.4960    -1.6850    -2.2040 hc         1 49W       0.041533
     89 H45         -7.7070     2.3520     2.3810 h4         1 49W       0.018100
     90 H46         -9.7690     2.9810     1.1480 ha         1 49W       0.141000
     91 H47        -10.0010     2.2170    -1.2290 ha         1 49W       0.136000
     92 H48         -8.1940     0.8740    -2.2320 ha         1 49W       0.142000
@<TRIPOS>BOND
     1     1     2 2   
     2     2     3 1   
     3     2    24 1   
     4     3     4 ar  
     5     3     5 ar  
     6     4    14 ar  
     7     4    46 1   
     8     5     6 ar  
     9     5    47 1   
    10     6     7 1   
    11     6    13 ar  
    12     7     8 1   
    13     7    12 1   
    14     8     9 2   
    15     8    48 1   
    16     9    10 1   
    17     9    49 1   
    18    10    11 2   
    19    10    50 1   
    20    11    12 1   
    21    11    51 1   
    22    12    52 1   
    23    12    53 1   
    24    13    14 ar  
    25    13    54 1   
    26    14    15 1   
    27    15    16 1   
    28    15    23 2   
    29    16    17 1   
    30    16    20 1   
    31    17    18 1   
    32    17    55 1   
    33    17    56 1   
    34    18    19 1   
    35    18    57 1   
    36    18    58 1   
    37    19    59 1   
    38    19    60 1   
    39    19    61 1   
    40    20    21 1   
    41    20    62 1   
    42    20    63 1   
    43    21    22 1   
    44    21    64 1   
    45    21    65 1   
    46    22    66 1   
    47    22    67 1   
    48    22    68 1   
    49    24    25 1   
    50    24    69 1   
    51    25    26 1   
    52    25    33 1   
    53    25    70 1   
    54    26    27 1   
    55    26    71 1   
    56    26    72 1   
    57    27    28 ar  
    58    27    32 ar  
    59    28    29 ar  
    60    28    73 1   
    61    29    30 ar  
    62    29    74 1   
    63    30    31 ar  
    64    30    75 1   
    65    31    32 ar  
    66    31    76 1   
    67    32    77 1   
    68    33    34 1   
    69    33    35 1   
    70    33    78 1   
    71    34    79 1   
    72    35    36 1   
    73    35    80 1   
    74    35    81 1   
    75    36    37 1   
    76    36    82 1   
    77    37    38 1   
    78    37    39 1   
    79    37    40 1   
    80    38    83 1   
    81    38    84 1   
    82    38    85 1   
    83    39    86 1   
    84    39    87 1   
    85    39    88 1   
    86    40    41 ar  
    87    40    45 ar  
    88    41    42 ar  
    89    42    43 ar  
    90    42    89 1   
    91    43    44 ar  
    92    43    90 1   
    93    44    45 ar  
    94    44    91 1   
    95    45    92 1   
@<TRIPOS>SUBSTRUCTURE
     1 49W         1 TEMP              0 ****  ****    0 ROOT
