@<TRIPOS>MOLECULE
49W
   92    95     1     0     0
SMALL
No Charge or Current Charge


@<TRIPOS>ATOM
      1 O3          -0.6380    -1.9700    -0.9810 o          1 49W      -0.583100
      2 C15         -0.3650    -1.1090    -0.1560 c          1 49W       0.610700
      3 C25          0.8230    -0.1820    -0.3190 ca         1 49W      -0.126600
      4 C24          1.2310     0.7080     0.7030 ca         1 49W      -0.088000
      5 C26          1.5640    -0.2120    -1.5220 ca         1 49W      -0.101000
      6 C27          2.6740     0.6290    -1.7220 ca         1 49W       0.303000
      7 N2           3.3880     0.5870    -2.9470 nh         1 49W      -0.692200
      8 C30          3.7400    -0.6290    -3.5420 c2         1 49W       0.034000
      9 C31          4.2130    -0.6900    -4.8040 ce         1 49W      -0.286000
     10 C32          4.3630     0.5220    -5.6090 ce         1 49W      -0.137000
     11 C29          4.2050     1.7270    -5.0240 c2         1 49W      -0.267200
     12 C47          3.8980     1.8620    -3.5360 c6         1 49W       0.268000
     13 C22          3.0550     1.5080    -0.6920 ca         1 49W      -0.129000
     14 C23          2.3570     1.5400     0.5370 ca         1 49W      -0.114600
     15 C28          2.7570     2.4890     1.6520 c          1 49W       0.609700
     16 N3           4.1210     2.8570     1.7760 n          1 49W      -0.403800
     17 C33          5.1730     1.8070     1.6440 c3         1 49W       0.098000
     18 C34          6.5330     2.3170     1.1160 c3         1 49W      -0.096400
     19 C35          7.5390     1.1780     0.8640 c3         1 49W      -0.089600
     20 C36          4.4680     4.0560     2.5870 c3         1 49W       0.098000
     21 C37          4.8310     3.7520     4.0590 c3         1 49W      -0.096400
     22 C38          5.0960     5.0260     4.8840 c3         1 49W      -0.089600
     23 O6           1.8980     2.9950     2.3650 o          1 49W      -0.589100
     24 N1          -1.1200    -0.9440     0.9880 ns         1 49W      -0.491900
     25 C11         -2.1860    -1.8570     1.4390 c3         1 49W       0.067700
     26 C14         -2.0500    -2.1050     2.9630 c3         1 49W      -0.051100
     27 C19         -0.6340    -2.5090     3.3670 ca         1 49W      -0.084300
     28 C20          0.1970    -1.6030     4.0580 ca         1 49W      -0.103000
     29 C21          1.5100    -1.9670     4.4050 ca         1 49W      -0.108500
     30 C16          1.9990    -3.2400     4.0650 ca         1 49W      -0.115000
     31 C17          1.1760    -4.1470     3.3790 ca         1 49W      -0.108500
     32 C18         -0.1370    -3.7830     3.0300 ca         1 49W      -0.103000
     33 C10         -3.6130    -1.3800     1.0260 c3         1 49W       0.162300
     34 O2          -3.8640    -0.0510     1.5360 oh         1 49W      -0.655000
     35 C9          -3.8340    -1.4020    -0.5150 c3         1 49W       0.141800
     36 N4          -5.2390    -1.0520    -0.8620 n7         1 49W      -0.879400
     37 C7          -5.6650    -0.9740    -2.2970 c3         1 49W       0.155900
     38 C12         -4.5830    -0.2550    -3.1500 c3         1 49W      -0.102100
     39 C13         -5.8460    -2.4350    -2.7930 c3         1 49W      -0.102100
     40 C3          -6.9920    -0.1450    -2.4120 ca         1 49W       0.360300
     41 N5          -7.1920     0.8160    -1.4630 nb         1 49W      -0.681000
     42 C1          -8.3110     1.5710    -1.5310 ca         1 49W       0.345900
     43 C6          -9.2740     1.4190    -2.5400 ca         1 49W      -0.168000
     44 C5          -9.0760     0.4470    -3.5320 ca         1 49W      -0.073000
     45 C4          -7.9160    -0.3410    -3.4660 ca         1 49W      -0.158000
     46 H1           0.6970     0.7510     1.6490 ha         1 49W       0.130000
     47 H2           1.2660    -0.8830    -2.3230 ha         1 49W       0.142000
     48 H3           3.6020    -1.5290    -2.9330 h4         1 49W       0.196000
     49 H4           4.4650    -1.6480    -5.2630 ha         1 49W       0.193000
     50 H5           4.6110     0.4220    -6.6700 ha         1 49W       0.182000
     51 H6           4.3110     2.6550    -5.5860 ha         1 49W       0.186000
     52 H7           3.1710     2.6730    -3.3800 h1         1 49W       0.043200
     53 H8           4.8280     2.1530    -3.0260 h1         1 49W       0.043200
     54 H9           3.9020     2.1700    -0.8430 ha         1 49W       0.124000
     55 H10          5.3290     1.3500     2.6300 h1         1 49W       0.052950
     56 H11          4.8310     0.9970     0.9910 h1         1 49W       0.052950
     57 H12          6.3730     2.8650     0.1800 hc         1 49W       0.046200
     58 H13          6.9740     3.0210     1.8320 hc         1 49W       0.046200
     59 H14          7.7410     0.6260     1.7890 hc         1 49W       0.035367
     60 H15          7.1500     0.4750     0.1170 hc         1 49W       0.035367
     61 H16          8.4890     1.5820     0.4920 hc         1 49W       0.035367
     62 H17          5.3090     4.5740     2.1100 h1         1 49W       0.052950
     63 H18          3.6270     4.7610     2.5670 h1         1 49W       0.052950
     64 H19          4.0120     3.1890     4.5240 hc         1 49W       0.046200
     65 H20          5.7230     3.1160     4.1000 hc         1 49W       0.046200
     66 H21          5.9320     5.5950     4.4590 hc         1 49W       0.035367
     67 H22          4.2090     5.6700     4.8990 hc         1 49W       0.035367
     68 H23          5.3490     4.7660     5.9190 hc         1 49W       0.035367
     69 H24         -0.8130    -0.2260     1.6290 hn         1 49W       0.306500
     70 H25         -2.0220    -2.8290     0.9530 h1         1 49W       0.089700
     71 H26         -2.3510    -1.2010     3.5070 hc         1 49W       0.062200
     72 H27         -2.7580    -2.8870     3.2620 hc         1 49W       0.062200
     73 H28         -0.1700    -0.6140     4.3230 ha         1 49W       0.110500
     74 H29          2.1470    -1.2630     4.9350 ha         1 49W       0.113000
     75 H30          3.0150    -3.5210     4.3330 ha         1 49W       0.111000
     76 H31          1.5540    -5.1330     3.1150 ha         1 49W       0.113000
     77 H32         -0.7660    -4.4900     2.4950 ha         1 49W       0.110500
     78 H33         -4.3340    -2.0870     1.4610 h1         1 49W       0.091700
     79 H34         -3.1840     0.5320     1.1370 ho         1 49W       0.437000
     80 H35         -3.1320    -0.6910    -0.9700 h1         1 49W       0.038700
     81 H36         -3.5820    -2.4030    -0.8920 h1         1 49W       0.038700
     82 H37         -5.4570    -0.1350    -0.4450 hn         1 49W       0.452000
     83 H39         -3.6580    -0.8400    -3.2100 hc         1 49W       0.041533
     84 H40         -4.9430    -0.1080    -4.1750 hc         1 49W       0.041533
     85 H41         -4.3470     0.7320    -2.7340 hc         1 49W       0.041533
     86 H42         -6.6810    -2.9210    -2.2740 hc         1 49W       0.041533
     87 H43         -6.0430    -2.4720    -3.8700 hc         1 49W       0.041533
     88 H44         -4.9440    -3.0330    -2.6170 hc         1 49W       0.041533
     89 H45         -8.4380     2.3220    -0.7520 h4         1 49W       0.018100
     90 H46        -10.1560     2.0530    -2.5510 ha         1 49W       0.123000
     91 H47         -9.8000     0.3110    -4.3330 ha         1 49W       0.118000
     92 H48         -7.7400    -1.0860    -4.2340 ha         1 49W       0.124000
@<TRIPOS>BOND
     1     1     2 2   
     2     2     3 1   
     3     2    24 1   
     4     3     4 ar  
     5     3     5 ar  
     6     4    14 ar  
     7     4    46 1   
     8     5     6 ar  
     9     5    47 1   
    10     6     7 1   
    11     6    13 ar  
    12     7     8 1   
    13     7    12 1   
    14     8     9 2   
    15     8    48 1   
    16     9    10 1   
    17     9    49 1   
    18    10    11 2   
    19    10    50 1   
    20    11    12 1   
    21    11    51 1   
    22    12    52 1   
    23    12    53 1   
    24    13    14 ar  
    25    13    54 1   
    26    14    15 1   
    27    15    16 1   
    28    15    23 2   
    29    16    17 1   
    30    16    20 1   
    31    17    18 1   
    32    17    55 1   
    33    17    56 1   
    34    18    19 1   
    35    18    57 1   
    36    18    58 1   
    37    19    59 1   
    38    19    60 1   
    39    19    61 1   
    40    20    21 1   
    41    20    62 1   
    42    20    63 1   
    43    21    22 1   
    44    21    64 1   
    45    21    65 1   
    46    22    66 1   
    47    22    67 1   
    48    22    68 1   
    49    24    25 1   
    50    24    69 1   
    51    25    26 1   
    52    25    33 1   
    53    25    70 1   
    54    26    27 1   
    55    26    71 1   
    56    26    72 1   
    57    27    28 ar  
    58    27    32 ar  
    59    28    29 ar  
    60    28    73 1   
    61    29    30 ar  
    62    29    74 1   
    63    30    31 ar  
    64    30    75 1   
    65    31    32 ar  
    66    31    76 1   
    67    32    77 1   
    68    33    34 1   
    69    33    35 1   
    70    33    78 1   
    71    34    79 1   
    72    35    36 1   
    73    35    80 1   
    74    35    81 1   
    75    36    37 1   
    76    36    82 1   
    77    37    38 1   
    78    37    39 1   
    79    37    40 1   
    80    38    83 1   
    81    38    84 1   
    82    38    85 1   
    83    39    86 1   
    84    39    87 1   
    85    39    88 1   
    86    40    41 ar  
    87    40    45 ar  
    88    41    42 ar  
    89    42    43 ar  
    90    42    89 1   
    91    43    44 ar  
    92    43    90 1   
    93    44    45 ar  
    94    44    91 1   
    95    45    92 1   
@<TRIPOS>SUBSTRUCTURE
     1 49W         1 TEMP              0 ****  ****    0 ROOT
