@<TRIPOS>MOLECULE
49X
  115   116     1     0     0
SMALL
bcc


@<TRIPOS>ATOM
      1 C1           1.2590     3.4890     1.4900 c6         1 49X       0.158300
      2 CBB        -19.6190    -1.5190    -0.6020 c3         1 49X      -0.088100
      3 CBA        -18.2500    -1.9860    -1.0740 c3         1 49X      -0.074400
      4 CAZ        -17.1030    -1.2730    -0.3690 c3         1 49X      -0.075400
      5 CAY        -15.7280    -1.7340    -0.8350 c3         1 49X      -0.074400
      6 CAX        -14.5810    -1.0210    -0.1300 c3         1 49X      -0.074400
      7 CAW        -13.2070    -1.4840    -0.5990 c3         1 49X      -0.074400
      8 CAV        -12.0560    -0.7750     0.1030 c3         1 49X      -0.074400
      9 CAU        -10.6860    -1.2420    -0.3720 c3         1 49X      -0.074400
     10 CAT         -9.5280    -0.5440     0.3300 c3         1 49X      -0.073400
     11 CAS         -8.1640    -1.0160    -0.1550 c3         1 49X      -0.074400
     12 CAR         -6.9970    -0.3420     0.5540 c3         1 49X      -0.073400
     13 CAQ         -5.6410    -0.8180     0.0490 c3         1 49X      -0.075400
     14 CAO         -3.1230    -0.6570     0.2240 c3         1 49X      -0.109400
     15 CAN         -1.9140    -0.2020     1.0350 c3         1 49X       0.119100
     16 OBN         -1.8990    -0.7780     2.3240 oh         1 49X      -0.588800
     17 CAM         -0.6090    -0.4790     0.2700 c3         1 49X       0.100100
     18 OBL         -0.5230     0.3300    -0.8800 oh         1 49X      -0.603800
     19 CAL          0.6620    -0.3290     1.1370 c3         1 49X       0.125900
     20 CAK          0.7300     1.0780     1.6570 c2         1 49X      -0.164200
     21 CAH          1.4460     2.0520     1.1110 c2         1 49X      -0.188200
     22 OG           2.4620     4.1710     1.7800 os         1 49X      -0.366600
     23 CG           3.3160     4.3900     0.6750 c6         1 49X       0.146100
     24 CG5          4.5680     5.0760     1.1830 c3         1 49X       0.149400
     25 OG6          5.2760     4.1720     1.9990 oh         1 49X      -0.589800
     26 CG4          2.6290     5.1920    -0.4220 c6         1 49X       0.123100
     27 OG5          2.3830     6.4960     0.0440 oh         1 49X      -0.589800
     28 CG3          1.3390     4.4830    -0.8250 c6         1 49X       0.116100
     29 OG4          0.6950     5.2840    -1.7870 oh         1 49X      -0.607800
     30 CG2          0.4700     4.2510     0.4010 c6         1 49X       0.079100
     31 OG3         -0.6790     3.5430    -0.0150 oh         1 49X      -0.615800
     32 NBC          1.7960    -0.6950     0.3230 ns         1 49X      -0.581900
     33 CBD          2.9250    -1.2350     0.8180 c          1 49X       0.668100
     34 OBM          3.0930    -1.4340     2.0120 o          1 49X      -0.594100
     35 CBE          3.9480    -1.6230    -0.2290 c3         1 49X      -0.155400
     36 CBF          5.3760    -1.6710     0.2940 c3         1 49X      -0.066400
     37 CBG          6.3620    -2.1200    -0.7770 c3         1 49X      -0.076400
     38 CBH          7.7920    -2.2290    -0.2640 c3         1 49X      -0.074400
     39 CBI          8.7770    -2.6800    -1.3340 c3         1 49X      -0.075400
     40 CBJ         10.2020    -2.8260    -0.8150 c3         1 49X      -0.073400
     41 CBK         11.1820    -3.2700    -1.9010 c3         1 49X      -0.031100
     42 CBO         12.5820    -3.4350    -1.3790 ca         1 49X      -0.077300
     43 CBR         13.4030    -2.3250    -1.1800 ca         1 49X      -0.125500
     44 CBS         14.6820    -2.4660    -0.6620 ca         1 49X      -0.127000
     45 CBT         15.1670    -3.7270    -0.3320 ca         1 49X      -0.130000
     46 CBU         14.3610    -4.8400    -0.5270 ca         1 49X      -0.127000
     47 CBV         13.0800    -4.6920    -1.0450 ca         1 49X      -0.125500
     48 H1           0.6720     3.5270     2.4140 h1         1 49X       0.078700
     49 H2         -20.4240    -2.0420    -1.1200 hc         1 49X       0.031367
     50 H3         -19.7470    -1.6910     0.4680 hc         1 49X       0.031367
     51 H4         -19.7530    -0.4500    -0.7790 hc         1 49X       0.031367
     52 H5         -18.1560    -3.0650    -0.9150 hc         1 49X       0.036700
     53 H6         -18.1610    -1.8320    -2.1540 hc         1 49X       0.036700
     54 H7         -17.1970    -0.1930    -0.5260 hc         1 49X       0.036700
     55 H8         -17.1910    -1.4280     0.7130 hc         1 49X       0.036700
     56 H9         -15.6350    -2.8140    -0.6770 hc         1 49X       0.036700
     57 H10        -15.6410    -1.5790    -1.9160 hc         1 49X       0.036700
     58 H11        -14.6730     0.0590    -0.2870 hc         1 49X       0.037200
     59 H12        -14.6660    -1.1770     0.9510 hc         1 49X       0.037200
     60 H13        -13.1160    -2.5650    -0.4430 hc         1 49X       0.036700
     61 H14        -13.1220    -1.3280    -1.6810 hc         1 49X       0.036700
     62 H15        -12.1460     0.3060    -0.0520 hc         1 49X       0.037700
     63 H16        -12.1390    -0.9320     1.1850 hc         1 49X       0.037700
     64 H17        -10.6000    -2.3240    -0.2210 hc         1 49X       0.036700
     65 H18        -10.6040    -1.0820    -1.4530 hc         1 49X       0.036700
     66 H19         -9.6120     0.5390     0.1820 hc         1 49X       0.037700
     67 H20         -9.6070    -0.7070     1.4110 hc         1 49X       0.037700
     68 H21         -8.0880    -2.1010    -0.0200 hc         1 49X       0.037200
     69 H22         -8.0830    -0.8420    -1.2330 hc         1 49X       0.037200
     70 H23         -7.0710     0.7440     0.4300 hc         1 49X       0.038200
     71 H24         -7.0700    -0.5280     1.6320 hc         1 49X       0.038200
     72 H25         -5.5860    -1.9090     0.1360 hc         1 49X       0.037200
     73 H26         -5.5560    -0.5980    -1.0210 hc         1 49X       0.037200
     74 H27         -4.5240     0.8910     0.7380 hc         1 49X       0.043700
     75 H28         -4.5280    -0.4620     1.8510 hc         1 49X       0.043700
     76 H29         -3.1020    -1.7530     0.1580 hc         1 49X       0.051200
     77 H30         -3.0200    -0.2940    -0.8020 hc         1 49X       0.051200
     78 H31         -1.9890     0.8800     1.2030 h1         1 49X       0.068700
     79 H32         -1.9640    -1.7350     2.2300 ho         1 49X       0.405000
     80 H33         -0.6270    -1.5130    -0.0940 h1         1 49X       0.075700
     81 H34         -0.5000     1.2590    -0.6040 ho         1 49X       0.424000
     82 H35          0.5980    -1.0290     1.9700 h1         1 49X       0.098700
     83 H36          0.0430     1.3100     2.4660 ha         1 49X       0.134000
     84 H37          2.1420     1.8180     0.3100 ha         1 49X       0.128000
     85 H38          3.6220     3.4360     0.2200 h1         1 49X       0.051700
     86 H39          5.1610     5.3870     0.3130 h1         1 49X       0.036200
     87 H40          4.2960     5.9860     1.7290 h1         1 49X       0.036200
     88 H41          6.0300     4.6370     2.3730 ho         1 49X       0.406000
     89 H42          3.3020     5.2030    -1.2920 h1         1 49X       0.049700
     90 H43          1.8670     6.9580    -0.6250 ho         1 49X       0.422000
     91 H44          1.6150     3.5100    -1.2600 h1         1 49X       0.050700
     92 H45         -0.1890     4.9320    -1.9380 ho         1 49X       0.428000
     93 H46          0.1860     5.2260     0.8150 h1         1 49X       0.066700
     94 H47         -1.3640     3.6400     0.6540 ho         1 49X       0.415000
     95 H48          1.7420    -0.5030    -0.6650 hn         1 49X       0.321500
     96 H49          3.6620    -2.6120    -0.6030 hc         1 49X       0.053200
     97 H50          3.8810    -0.9480    -1.0870 hc         1 49X       0.053200
     98 H51          5.6670    -0.6850     0.6690 hc         1 49X       0.057700
     99 H52          5.4280    -2.3530     1.1460 hc         1 49X       0.057700
    100 H53          6.0470    -3.0910    -1.1750 hc         1 49X       0.034200
    101 H54          6.3310    -1.4210    -1.6210 hc         1 49X       0.034200
    102 H55          8.1100    -1.2610     0.1390 hc         1 49X       0.041700
    103 H56          7.8200    -2.9310     0.5770 hc         1 49X       0.041700
    104 H57          8.4450    -3.6380    -1.7510 hc         1 49X       0.036200
    105 H58          8.7660    -1.9660    -2.1650 hc         1 49X       0.036200
    106 H59         10.5380    -1.8740    -0.3920 hc         1 49X       0.043700
    107 H60         10.2200    -3.5500     0.0060 hc         1 49X       0.043700
    108 H61         10.8380    -4.2150    -2.3320 hc         1 49X       0.045200
    109 H62         11.1750    -2.5370    -2.7130 hc         1 49X       0.045200
    110 H63         13.0360    -1.3380    -1.4380 ha         1 49X       0.128000
    111 H64         15.3040    -1.5920    -0.5170 ha         1 49X       0.129000
    112 H65         16.1650    -3.8390     0.0710 ha         1 49X       0.129000
    113 H66         14.7300    -5.8270    -0.2790 ha         1 49X       0.129000
    114 H67         12.4600    -5.5680    -1.1960 ha         1 49X       0.128000
    115 CAP         -4.4610    -0.2020     0.7910 c3         1 49X      -0.071400
@<TRIPOS>BOND
     1     1    21 1   
     2     1    22 1   
     3     1    30 1   
     4     1    48 1   
     5     2     3 1   
     6     2    49 1   
     7     2    50 1   
     8     2    51 1   
     9     3     4 1   
    10     3    52 1   
    11     3    53 1   
    12     4     5 1   
    13     4    54 1   
    14     4    55 1   
    15     5     6 1   
    16     5    56 1   
    17     5    57 1   
    18     6     7 1   
    19     6    58 1   
    20     6    59 1   
    21     7     8 1   
    22     7    60 1   
    23     7    61 1   
    24     8     9 1   
    25     8    62 1   
    26     8    63 1   
    27     9    10 1   
    28     9    64 1   
    29     9    65 1   
    30    10    11 1   
    31    10    66 1   
    32    10    67 1   
    33    11    12 1   
    34    11    68 1   
    35    11    69 1   
    36    12    13 1   
    37    12    70 1   
    38    12    71 1   
    39    13    72 1   
    40    13    73 1   
    41    13   115 1   
    42    14    15 1   
    43    14    76 1   
    44    14    77 1   
    45    14   115 1   
    46    15    16 1   
    47    15    17 1   
    48    15    78 1   
    49    16    79 1   
    50    17    18 1   
    51    17    19 1   
    52    17    80 1   
    53    18    81 1   
    54    19    20 1   
    55    19    32 1   
    56    19    82 1   
    57    20    21 2   
    58    20    83 1   
    59    21    84 1   
    60    22    23 1   
    61    23    24 1   
    62    23    26 1   
    63    23    85 1   
    64    24    25 1   
    65    24    86 1   
    66    24    87 1   
    67    25    88 1   
    68    26    27 1   
    69    26    28 1   
    70    26    89 1   
    71    27    90 1   
    72    28    29 1   
    73    28    30 1   
    74    28    91 1   
    75    29    92 1   
    76    30    31 1   
    77    30    93 1   
    78    31    94 1   
    79    32    33 1   
    80    32    95 1   
    81    33    34 2   
    82    33    35 1   
    83    35    36 1   
    84    35    96 1   
    85    35    97 1   
    86    36    37 1   
    87    36    98 1   
    88    36    99 1   
    89    37    38 1   
    90    37   100 1   
    91    37   101 1   
    92    38    39 1   
    93    38   102 1   
    94    38   103 1   
    95    39    40 1   
    96    39   104 1   
    97    39   105 1   
    98    40    41 1   
    99    40   106 1   
   100    40   107 1   
   101    41    42 1   
   102    41   108 1   
   103    41   109 1   
   104    42    43 ar  
   105    42    47 ar  
   106    43    44 ar  
   107    43   110 1   
   108    44    45 ar  
   109    44   111 1   
   110    45    46 ar  
   111    45   112 1   
   112    46    47 ar  
   113    46   113 1   
   114    47   114 1   
   115    74   115 1   
   116    75   115 1   
@<TRIPOS>SUBSTRUCTURE
     1 49X         1 TEMP              0 ****  ****    0 ROOT
