@<TRIPOS>MOLECULE
49X
  115   116     1     0     0
SMALL
No Charge or Current Charge


@<TRIPOS>ATOM
      1 C1           1.0400     3.9890    -0.3090 c6         1 49X       0.181500
      2 CBB        -19.8740    -1.6300     0.7960 c3         1 49X      -0.088100
      3 CBA        -18.5810    -1.9460     0.0200 c3         1 49X      -0.074400
      4 CAZ        -17.3090    -1.4370     0.7320 c3         1 49X      -0.075400
      5 CAY        -16.0130    -1.7540    -0.0460 c3         1 49X      -0.074400
      6 CAX        -14.7400    -1.2440     0.6660 c3         1 49X      -0.074400
      7 CAW        -13.4450    -1.5610    -0.1130 c3         1 49X      -0.074400
      8 CAV        -12.1720    -1.0520     0.6000 c3         1 49X      -0.074400
      9 CAU        -10.8760    -1.3680    -0.1790 c3         1 49X      -0.074400
     10 CAT         -9.6040    -0.8590     0.5330 c3         1 49X      -0.073400
     11 CAS         -8.3080    -1.1750    -0.2450 c3         1 49X      -0.074400
     12 CAR         -7.0360    -0.6650     0.4670 c3         1 49X      -0.073400
     13 CAQ         -5.7400    -0.9820    -0.3120 c3         1 49X      -0.075400
     14 CAO         -3.1690    -0.7890    -0.3840 c3         1 49X      -0.109400
     15 CAN         -1.8750    -0.2390     0.2760 c3         1 49X       0.142300
     16 OBN         -1.7270    -0.8420     1.5720 oh         1 49X      -0.651000
     17 CAM         -0.5860    -0.4880    -0.5810 c3         1 49X       0.123300
     18 OBL         -0.7230     0.1220    -1.8810 oh         1 49X      -0.666000
     19 CAL          0.7170     0.0410     0.1050 c3         1 49X       0.125900
     20 CAK          0.7110     1.5480     0.3010 c2         1 49X      -0.214200
     21 CAH          1.0740     2.4860    -0.5980 c2         1 49X      -0.238200
     22 OG           1.5550     4.2660     1.0170 os         1 49X      -0.413000
     23 CG           2.9690     3.9700     1.1940 c6         1 49X       0.169300
     24 CG5          3.3460     4.1840     2.6970 c3         1 49X       0.172600
     25 OG6          2.5860     3.3540     3.6020 oh         1 49X      -0.712000
     26 CG4          3.8450     4.8340     0.2260 c6         1 49X       0.146300
     27 OG5          3.7900     6.2450     0.5260 oh         1 49X      -0.712000
     28 CG3          3.3520     4.6060    -1.2350 c6         1 49X       0.139300
     29 OG4          4.0540     5.4710    -2.1460 oh         1 49X      -0.670000
     30 CG2          1.8150     4.8560    -1.3590 c6         1 49X       0.102300
     31 OG3          1.3810     4.6100    -2.7190 oh         1 49X      -0.738000
     32 NBC          1.9340    -0.3420    -0.6180 ns         1 49X      -0.514900
     33 CBD          2.4420    -1.6180    -0.6850 c          1 49X       0.601100
     34 OBM          1.9090    -2.5670    -0.1290 o          1 49X      -0.594100
     35 CBE          3.7120    -1.7630    -1.5310 c3         1 49X      -0.155400
     36 CBF          4.9640    -1.9570    -0.6440 c3         1 49X      -0.066400
     37 CBG          6.2670    -2.0950    -1.4620 c3         1 49X      -0.076400
     38 CBH          7.5180    -2.2890    -0.5780 c3         1 49X      -0.074400
     39 CBI          8.8210    -2.4260    -1.3970 c3         1 49X      -0.075400
     40 CBJ         10.0720    -2.6190    -0.5120 c3         1 49X      -0.073400
     41 CBK         11.3760    -2.7570    -1.3270 c3         1 49X      -0.031100
     42 CBO         12.5930    -2.9470    -0.4320 ca         1 49X      -0.077300
     43 CBR         13.3150    -1.8300     0.0310 ca         1 49X      -0.107500
     44 CBS         14.4360    -2.0040     0.8610 ca         1 49X      -0.109000
     45 CBT         14.8410    -3.2970     1.2340 ca         1 49X      -0.112000
     46 CBU         14.1230    -4.4150     0.7770 ca         1 49X      -0.109000
     47 CBV         13.0020    -4.2400    -0.0530 ca         1 49X      -0.107500
     48 H1          -0.0130     4.3100    -0.3200 h1         1 49X       0.078700
     49 H2         -20.7480    -2.0100     0.2530 hc         1 49X       0.031367
     50 H3         -19.8560    -2.0980     1.7870 hc         1 49X       0.031367
     51 H4         -19.9950    -0.5480     0.9250 hc         1 49X       0.031367
     52 H5         -18.5080    -3.0320    -0.1240 hc         1 49X       0.036700
     53 H6         -18.6450    -1.4950    -0.9780 hc         1 49X       0.036700
     54 H7         -17.3870    -0.3520     0.8750 hc         1 49X       0.036700
     55 H8         -17.2490    -1.8890     1.7300 hc         1 49X       0.036700
     56 H9         -15.9350    -2.8390    -0.1900 hc         1 49X       0.036700
     57 H10        -16.0720    -1.3020    -1.0450 hc         1 49X       0.036700
     58 H11        -14.8180    -0.1590     0.8090 hc         1 49X       0.037200
     59 H12        -14.6810    -1.6970     1.6640 hc         1 49X       0.037200
     60 H13        -13.3670    -2.6460    -0.2560 hc         1 49X       0.036700
     61 H14        -13.5040    -1.1090    -1.1110 hc         1 49X       0.036700
     62 H15        -12.2500     0.0330     0.7430 hc         1 49X       0.037700
     63 H16        -12.1130    -1.5040     1.5980 hc         1 49X       0.037700
     64 H17        -10.7980    -2.4530    -0.3220 hc         1 49X       0.036700
     65 H18        -10.9360    -0.9160    -1.1770 hc         1 49X       0.036700
     66 H19         -9.6820     0.2260     0.6770 hc         1 49X       0.037700
     67 H20         -9.5440    -1.3110     1.5310 hc         1 49X       0.037700
     68 H21         -8.2300    -2.2600    -0.3890 hc         1 49X       0.037200
     69 H22         -8.3680    -0.7230    -1.2430 hc         1 49X       0.037200
     70 H23         -7.1140     0.4200     0.6110 hc         1 49X       0.038200
     71 H24         -6.9760    -1.1180     1.4650 hc         1 49X       0.038200
     72 H25         -5.6620    -2.0670    -0.4550 hc         1 49X       0.037200
     73 H26         -5.8010    -0.5300    -1.3100 hc         1 49X       0.037200
     74 H27         -4.5450     0.6130     0.5420 hc         1 49X       0.043700
     75 H28         -4.4150    -0.9220     1.3990 hc         1 49X       0.043700
     76 H29         -3.0790    -1.8740    -0.5170 hc         1 49X       0.051200
     77 H30         -3.2670    -0.3610    -1.3890 hc         1 49X       0.051200
     78 H31         -1.9930     0.8480     0.3920 h1         1 49X       0.068700
     79 H32         -1.9210    -1.7990     1.4710 ho         1 49X       0.444000
     80 H33         -0.4860    -1.5750    -0.7010 h1         1 49X       0.075700
     81 H34         -0.4760     1.0660    -1.7660 ho         1 49X       0.463000
     82 H35          0.7790    -0.4270     1.0990 h1         1 49X       0.098700
     83 H36          0.3760     1.8510     1.2960 ha         1 49X       0.184000
     84 H37          1.4140     2.2060    -1.5960 ha         1 49X       0.178000
     85 H38          3.1420     2.9090     0.9660 h1         1 49X       0.051700
     86 H39          4.4190     3.9760     2.8110 h1         1 49X       0.036200
     87 H40          3.1930     5.2430     2.9450 h1         1 49X       0.036200
     88 H41          2.8330     3.6260     4.5160 ho         1 49X       0.505000
     89 H42          4.8850     4.4810     0.2960 h1         1 49X       0.049700
     90 H43          4.0450     6.6780    -0.3250 ho         1 49X       0.521000
     91 H44          3.5510     3.5560    -1.4980 h1         1 49X       0.050700
     92 H45          3.5180     5.4400    -2.9730 ho         1 49X       0.467000
     93 H46          1.6260     5.9100    -1.1030 h1         1 49X       0.066700
     94 H47          0.4440     4.9130    -2.7900 ho         1 49X       0.514000
     95 H48          2.4500     0.3790    -1.1020 hn         1 49X       0.321500
     96 H49          3.6040    -2.6420    -2.1780 hc         1 49X       0.053200
     97 H50          3.8580    -0.8660    -2.1450 hc         1 49X       0.053200
     98 H51          5.0570    -1.1050     0.0410 hc         1 49X       0.057700
     99 H52          4.8320    -2.8520    -0.0230 hc         1 49X       0.057700
    100 H53          6.1740    -2.9480    -2.1460 hc         1 49X       0.034200
    101 H54          6.3990    -1.2000    -2.0830 hc         1 49X       0.034200
    102 H55          7.6110    -1.4360     0.1060 hc         1 49X       0.041700
    103 H56          7.3860    -3.1840     0.0420 hc         1 49X       0.041700
    104 H57          8.7280    -3.2790    -2.0810 hc         1 49X       0.036200
    105 H58          8.9520    -1.5300    -2.0170 hc         1 49X       0.036200
    106 H59         10.1670    -1.7670     0.1720 hc         1 49X       0.043700
    107 H60          9.9420    -3.5150     0.1080 hc         1 49X       0.043700
    108 H61         11.2810    -3.6050    -2.0180 hc         1 49X       0.045200
    109 H62         11.5050    -1.8660    -1.9540 hc         1 49X       0.045200
    110 H63         13.0070    -0.8250    -0.2510 ha         1 49X       0.110000
    111 H64         14.9900    -1.1380     1.2160 ha         1 49X       0.111000
    112 H65         15.7080    -3.4320     1.8770 ha         1 49X       0.111000
    113 H66         14.4350    -5.4170     1.0660 ha         1 49X       0.111000
    114 H67         12.4500    -5.1110    -0.4010 ha         1 49X       0.110000
    115 CAP         -4.4670    -0.4720     0.4000 c3         1 49X      -0.071400
@<TRIPOS>BOND
     1     1    21 1   
     2     1    22 1   
     3     1    30 1   
     4     1    48 1   
     5     2     3 1   
     6     2    49 1   
     7     2    50 1   
     8     2    51 1   
     9     3     4 1   
    10     3    52 1   
    11     3    53 1   
    12     4     5 1   
    13     4    54 1   
    14     4    55 1   
    15     5     6 1   
    16     5    56 1   
    17     5    57 1   
    18     6     7 1   
    19     6    58 1   
    20     6    59 1   
    21     7     8 1   
    22     7    60 1   
    23     7    61 1   
    24     8     9 1   
    25     8    62 1   
    26     8    63 1   
    27     9    10 1   
    28     9    64 1   
    29     9    65 1   
    30    10    11 1   
    31    10    66 1   
    32    10    67 1   
    33    11    12 1   
    34    11    68 1   
    35    11    69 1   
    36    12    13 1   
    37    12    70 1   
    38    12    71 1   
    39    13    72 1   
    40    13    73 1   
    41    13   115 1   
    42    14    15 1   
    43    14    76 1   
    44    14    77 1   
    45    14   115 1   
    46    15    16 1   
    47    15    17 1   
    48    15    78 1   
    49    16    79 1   
    50    17    18 1   
    51    17    19 1   
    52    17    80 1   
    53    18    81 1   
    54    19    20 1   
    55    19    32 1   
    56    19    82 1   
    57    20    21 2   
    58    20    83 1   
    59    21    84 1   
    60    22    23 1   
    61    23    24 1   
    62    23    26 1   
    63    23    85 1   
    64    24    25 1   
    65    24    86 1   
    66    24    87 1   
    67    25    88 1   
    68    26    27 1   
    69    26    28 1   
    70    26    89 1   
    71    27    90 1   
    72    28    29 1   
    73    28    30 1   
    74    28    91 1   
    75    29    92 1   
    76    30    31 1   
    77    30    93 1   
    78    31    94 1   
    79    32    33 1   
    80    32    95 1   
    81    33    34 2   
    82    33    35 1   
    83    35    36 1   
    84    35    96 1   
    85    35    97 1   
    86    36    37 1   
    87    36    98 1   
    88    36    99 1   
    89    37    38 1   
    90    37   100 1   
    91    37   101 1   
    92    38    39 1   
    93    38   102 1   
    94    38   103 1   
    95    39    40 1   
    96    39   104 1   
    97    39   105 1   
    98    40    41 1   
    99    40   106 1   
   100    40   107 1   
   101    41    42 1   
   102    41   108 1   
   103    41   109 1   
   104    42    43 ar  
   105    42    47 ar  
   106    43    44 ar  
   107    43   110 1   
   108    44    45 ar  
   109    44   111 1   
   110    45    46 ar  
   111    45   112 1   
   112    46    47 ar  
   113    46   113 1   
   114    47   114 1   
   115    74   115 1   
   116    75   115 1   
@<TRIPOS>SUBSTRUCTURE
     1 49X         1 TEMP              0 ****  ****    0 ROOT
