@<TRIPOS>MOLECULE
49Y
  143   144     1     0     0
SMALL
No Charge or Current Charge


@<TRIPOS>ATOM
      1 C4           4.3710     0.1940     2.7890 c3         1 49Y       0.135300
      2 C14         16.1930     1.2530    -2.2970 c3         1 49Y      -0.074400
      3 C5           5.5140    -0.4570     1.9670 c3         1 49Y      -0.109400
      4 C6           6.7600     0.4430     1.7810 c3         1 49Y      -0.076400
      5 C11         12.5540     0.2000    -1.1500 c3         1 49Y      -0.073400
      6 C7           7.8490    -0.2170     0.9070 c3         1 49Y      -0.074400
      7 C8           9.1050     0.6660     0.7340 c3         1 49Y      -0.075400
      8 C9          10.1960    -0.0010    -0.1320 c3         1 49Y      -0.073400
      9 C10         11.4600     0.8720    -0.2910 c3         1 49Y      -0.075400
     10 C12         13.8240     1.0660    -1.2990 c3         1 49Y      -0.074400
     11 C13         14.9190     0.3900    -2.1530 c3         1 49Y      -0.074400
     12 N2           1.5440     1.3080     2.6630 ns         1 49Y      -0.506900
     13 C3           3.0780    -0.6830     2.8290 c3         1 49Y       0.138300
     14 CCL        -20.4090    -2.5130    -2.5490 c3         1 49Y      -0.088100
     15 CCK        -19.0340    -2.6750    -1.8720 c3         1 49Y      -0.074400
     16 CCJ        -18.0820    -1.4900    -2.1450 c3         1 49Y      -0.075400
     17 CCI        -16.7050    -1.6520    -1.4630 c3         1 49Y      -0.074400
     18 CCH        -15.7510    -0.4700    -1.7410 c3         1 49Y      -0.074400
     19 CCG        -14.3750    -0.6300    -1.0580 c3         1 49Y      -0.074400
     20 CCF        -13.4170     0.5480    -1.3410 c3         1 49Y      -0.074400
     21 CCE        -12.0420     0.3850    -0.6580 c3         1 49Y      -0.074400
     22 CCD        -11.0790     1.5570    -0.9470 c3         1 49Y      -0.073400
     23 CCB         -8.7520     2.5430    -0.5660 cx         1 49Y      -0.115700
     24 CCA         -7.9330     2.5660    -1.8380 cx         1 49Y      -0.133400
     25 CBZ         -7.2550     2.3480    -0.5030 cx         1 49Y      -0.117700
     26 CBY         -6.3490     3.4130     0.1030 c3         1 49Y      -0.046400
     27 CAH         -4.9030     3.3320    -0.4290 c3         1 49Y      -0.071400
     28 CAG         -3.9580     4.3690     0.2160 c3         1 49Y      -0.075400
     29 CAF         -2.4920     4.2360    -0.2480 c3         1 49Y      -0.046200
     30 CAE         -1.6200     5.3370     0.3260 c2         1 49Y      -0.216200
     31 CAD         -0.7950     5.2730     1.3870 c2         1 49Y      -0.218200
     32 CAC         -0.5310     4.0870     2.2990 c3         1 49Y      -0.039200
     33 CAB          0.9530     3.6560     2.2540 c3         1 49Y      -0.153400
     34 CAA          1.2530     2.5230     3.2410 c          1 49Y       0.604100
     35 OAA          1.2750     2.6940     4.4510 o          1 49Y      -0.596100
     36 C2           1.8360     0.0650     3.4050 c3         1 49Y       0.083700
     37 C1           0.5650    -0.8200     3.4640 c3         1 49Y       0.144600
     38 O1A          0.1580    -1.1280     2.1140 os         1 49Y      -0.482000
     39 C1A         -1.0790    -1.8520     1.9720 c6         1 49Y       0.361300
     40 O6A         -2.1750    -1.0540     2.4690 os         1 49Y      -0.453000
     41 C5M         -2.4000     0.1830     1.7390 c6         1 49Y       0.173300
     42 C6A         -3.5120     1.0040     2.4720 c3         1 49Y       0.169600
     43 O5A         -3.1890     1.3050     3.8460 oh         1 49Y      -0.718000
     44 C4A         -2.7460    -0.1100     0.2430 c6         1 49Y       0.146300
     45 O4A         -3.9940    -0.8140     0.0820 oh         1 49Y      -0.715000
     46 C3A         -1.5990    -0.9600    -0.3780 c6         1 49Y       0.141300
     47 O3A         -1.9290    -1.3370    -1.7300 oh         1 49Y      -0.673000
     48 C2A         -1.3100    -2.2380     0.4720 c6         1 49Y       0.115300
     49 O2A         -0.1730    -2.9460    -0.0810 oh         1 49Y      -0.711000
     50 O3           3.3630    -1.8480     3.6230 oh         1 49Y      -0.649000
     51 O4           4.8280     0.4160     4.1370 oh         1 49Y      -0.659000
     52 C15         17.2890     0.5760    -3.1500 c3         1 49Y      -0.074400
     53 C16         18.5630     1.4380    -3.2900 c3         1 49Y      -0.075400
     54 C17         19.6590     0.7620    -4.1420 c3         1 49Y      -0.075400
     55 C18         20.9310     1.6210    -4.2800 c3         1 49Y      -0.088100
     56 H1           4.1230     1.1520     2.3100 h1         1 49Y       0.074700
     57 H2          15.9260     2.2150    -2.7510 hc         1 49Y       0.037200
     58 H3          16.5950     1.4690    -1.2990 hc         1 49Y       0.037200
     59 H4           5.8190    -1.3990     2.4400 hc         1 49Y       0.051700
     60 H5           5.1230    -0.7190     0.9750 hc         1 49Y       0.051700
     61 H6           6.4560     1.3920     1.3220 hc         1 49Y       0.043200
     62 H7           7.1910     0.6820     2.7610 hc         1 49Y       0.043200
     63 H8          12.8260    -0.7630    -0.6980 hc         1 49Y       0.037200
     64 H9          12.1470    -0.0180    -2.1460 hc         1 49Y       0.037200
     65 H10          8.1420    -1.1730     1.3580 hc         1 49Y       0.038200
     66 H11          7.4300    -0.4440    -0.0810 hc         1 49Y       0.038200
     67 H12          8.8150     1.6210     0.2780 hc         1 49Y       0.037700
     68 H13          9.5210     0.8960     1.7230 hc         1 49Y       0.037700
     69 H14         10.4770    -0.9610     0.3190 hc         1 49Y       0.037200
     70 H15          9.7830    -0.2220    -1.1240 hc         1 49Y       0.037200
     71 H16         11.8700     1.0960     0.7020 hc         1 49Y       0.037200
     72 H17         11.1820     1.8300    -0.7470 hc         1 49Y       0.037200
     73 H18         13.5540     2.0270    -1.7540 hc         1 49Y       0.037200
     74 H19         14.2290     1.2850    -0.3030 hc         1 49Y       0.037200
     75 H20         14.5160     0.1740    -3.1510 hc         1 49Y       0.037200
     76 H21         15.1870    -0.5730    -1.7000 hc         1 49Y       0.037200
     77 H22          1.4730     1.2560     1.6540 hn         1 49Y       0.312500
     78 H23          2.8360    -0.9810     1.7990 h1         1 49Y       0.085700
     79 H24        -20.2980    -2.4350    -3.6380 hc         1 49Y       0.031367
     80 H25        -21.0470    -3.3770    -2.3300 hc         1 49Y       0.031367
     81 H26        -20.9160    -1.6100    -2.1870 hc         1 49Y       0.031367
     82 H27        -19.1810    -2.7830    -0.7900 hc         1 49Y       0.036700
     83 H28        -18.5700    -3.6040    -2.2270 hc         1 49Y       0.036700
     84 H29        -17.9380    -1.3860    -3.2280 hc         1 49Y       0.036700
     85 H30        -18.5510    -0.5630    -1.7930 hc         1 49Y       0.036700
     86 H31        -16.8490    -1.7520    -0.3800 hc         1 49Y       0.036700
     87 H32        -16.2380    -2.5820    -1.8120 hc         1 49Y       0.036700
     88 H33        -15.6060    -0.3710    -2.8240 hc         1 49Y       0.036700
     89 H34        -16.2190     0.4600    -1.3940 hc         1 49Y       0.036700
     90 H35        -14.5200    -0.7240     0.0260 hc         1 49Y       0.036700
     91 H36        -13.9100    -1.5630    -1.4010 hc         1 49Y       0.036700
     92 H37        -13.2720     0.6420    -2.4250 hc         1 49Y       0.037200
     93 H38        -13.8820     1.4810    -0.9980 hc         1 49Y       0.037200
     94 H39        -12.1870     0.2970     0.4260 hc         1 49Y       0.037200
     95 H40        -11.5810    -0.5510    -0.9960 hc         1 49Y       0.037200
     96 H41        -10.9330     1.6440    -2.0310 hc         1 49Y       0.038700
     97 H42        -11.5380     2.4950    -0.6090 hc         1 49Y       0.038700
     98 H43         -9.8480     1.3170     0.8210 hc         1 49Y       0.040700
     99 H44         -9.2580     0.4410    -0.5850 hc         1 49Y       0.040700
    100 H45         -9.1370     3.5000    -0.2190 hc         1 49Y       0.073700
    101 H46         -8.0080     1.7150    -2.5110 hc         1 49Y       0.069700
    102 H47         -7.7950     3.5250    -2.3320 hc         1 49Y       0.069700
    103 H48         -6.9020     1.3400    -0.2960 hc         1 49Y       0.074700
    104 H49         -6.7500     4.4140    -0.1000 hc         1 49Y       0.041700
    105 H50         -6.3370     3.2960     1.1940 hc         1 49Y       0.041700
    106 H51         -4.5150     2.3240    -0.2480 hc         1 49Y       0.035700
    107 H52         -4.9100     3.4770    -1.5170 hc         1 49Y       0.035700
    108 H53         -4.3200     5.3770    -0.0230 hc         1 49Y       0.042200
    109 H54         -3.9950     4.2700     1.3080 hc         1 49Y       0.042200
    110 H55         -2.1150     3.2450     0.0280 hc         1 49Y       0.044200
    111 H56         -2.4550     4.2770    -1.3440 hc         1 49Y       0.044200
    112 H57         -1.7000     6.2770    -0.2250 ha         1 49Y       0.165000
    113 H58         -0.2330     6.1660     1.6710 ha         1 49Y       0.165000
    114 H59         -0.7920     4.3600     3.3300 hc         1 49Y       0.067200
    115 H60         -1.1640     3.2300     2.0470 hc         1 49Y       0.067200
    116 H61          1.1940     3.3420     1.2310 hc         1 49Y       0.053700
    117 H62          1.5710     4.5200     2.5260 hc         1 49Y       0.053700
    118 H63          2.0830     0.3340     4.4410 h1         1 49Y       0.101700
    119 H64          0.7650    -1.7370     4.0330 h1         1 49Y       0.051200
    120 H65         -0.2230    -0.2630     3.9900 h1         1 49Y       0.051200
    121 H66         -1.0180    -2.7800     2.5620 h2         1 49Y       0.070700
    122 H67         -1.4800     0.7850     1.7740 h1         1 49Y       0.055700
    123 H68         -3.6680     1.9360     1.9150 h1         1 49Y       0.037700
    124 H69         -4.4510     0.4350     2.4220 h1         1 49Y       0.037700
    125 H70         -3.9990     1.6880     4.2550 ho         1 49Y       0.507000
    126 H71         -2.7850     0.8470    -0.2970 h1         1 49Y       0.049700
    127 H72         -3.9200    -1.2340    -0.8090 ho         1 49Y       0.522000
    128 H73         -0.6900    -0.3400    -0.3800 h1         1 49Y       0.060700
    129 H74         -1.2950    -2.0560    -1.9570 ho         1 49Y       0.469000
    130 H75         -2.1990    -2.8850     0.4360 h1         1 49Y       0.064700
    131 H76          0.6230    -2.5620     0.3610 ho         1 49Y       0.513000
    132 H77          4.0470    -1.5350     4.2600 ho         1 49Y       0.441000
    133 H78          5.5570     1.0720     4.0930 ho         1 49Y       0.441000
    134 H79         17.5540    -0.3880    -2.6970 hc         1 49Y       0.036700
    135 H80         16.8870     0.3610    -4.1480 hc         1 49Y       0.036700
    136 H81         18.2980     2.4020    -3.7420 hc         1 49Y       0.036700
    137 H82         18.9650     1.6520    -2.2910 hc         1 49Y       0.036700
    138 H83         19.9280    -0.2020    -3.6920 hc         1 49Y       0.036700
    139 H84         19.2630     0.5490    -5.1420 hc         1 49Y       0.036700
    140 H85         21.6780     1.1010    -4.8920 hc         1 49Y       0.031367
    141 H86         20.7020     2.5800    -4.7600 hc         1 49Y       0.031367
    142 H87         21.3730     1.8220    -3.2970 hc         1 49Y       0.031367
    143 CCC         -9.7040     1.3910    -0.2640 c3         1 49Y      -0.045400
@<TRIPOS>BOND
     1     1     3 1   
     2     1    13 1   
     3     1    51 1   
     4     1    56 1   
     5     2    11 1   
     6     2    52 1   
     7     2    57 1   
     8     2    58 1   
     9     3     4 1   
    10     3    59 1   
    11     3    60 1   
    12     4     6 1   
    13     4    61 1   
    14     4    62 1   
    15     5     9 1   
    16     5    10 1   
    17     5    63 1   
    18     5    64 1   
    19     6     7 1   
    20     6    65 1   
    21     6    66 1   
    22     7     8 1   
    23     7    67 1   
    24     7    68 1   
    25     8     9 1   
    26     8    69 1   
    27     8    70 1   
    28     9    71 1   
    29     9    72 1   
    30    10    11 1   
    31    10    73 1   
    32    10    74 1   
    33    11    75 1   
    34    11    76 1   
    35    12    34 1   
    36    12    36 1   
    37    12    77 1   
    38    13    36 1   
    39    13    50 1   
    40    13    78 1   
    41    14    15 1   
    42    14    79 1   
    43    14    80 1   
    44    14    81 1   
    45    15    16 1   
    46    15    82 1   
    47    15    83 1   
    48    16    17 1   
    49    16    84 1   
    50    16    85 1   
    51    17    18 1   
    52    17    86 1   
    53    17    87 1   
    54    18    19 1   
    55    18    88 1   
    56    18    89 1   
    57    19    20 1   
    58    19    90 1   
    59    19    91 1   
    60    20    21 1   
    61    20    92 1   
    62    20    93 1   
    63    21    22 1   
    64    21    94 1   
    65    21    95 1   
    66    22    96 1   
    67    22    97 1   
    68    22   143 1   
    69    23    24 1   
    70    23    25 1   
    71    23   100 1   
    72    23   143 1   
    73    24    25 1   
    74    24   101 1   
    75    24   102 1   
    76    25    26 1   
    77    25   103 1   
    78    26    27 1   
    79    26   104 1   
    80    26   105 1   
    81    27    28 1   
    82    27   106 1   
    83    27   107 1   
    84    28    29 1   
    85    28   108 1   
    86    28   109 1   
    87    29    30 1   
    88    29   110 1   
    89    29   111 1   
    90    30    31 2   
    91    30   112 1   
    92    31    32 1   
    93    31   113 1   
    94    32    33 1   
    95    32   114 1   
    96    32   115 1   
    97    33    34 1   
    98    33   116 1   
    99    33   117 1   
   100    34    35 2   
   101    36    37 1   
   102    36   118 1   
   103    37    38 1   
   104    37   119 1   
   105    37   120 1   
   106    38    39 1   
   107    39    40 1   
   108    39    48 1   
   109    39   121 1   
   110    40    41 1   
   111    41    42 1   
   112    41    44 1   
   113    41   122 1   
   114    42    43 1   
   115    42   123 1   
   116    42   124 1   
   117    43   125 1   
   118    44    45 1   
   119    44    46 1   
   120    44   126 1   
   121    45   127 1   
   122    46    47 1   
   123    46    48 1   
   124    46   128 1   
   125    47   129 1   
   126    48    49 1   
   127    48   130 1   
   128    49   131 1   
   129    50   132 1   
   130    51   133 1   
   131    52    53 1   
   132    52   134 1   
   133    52   135 1   
   134    53    54 1   
   135    53   136 1   
   136    53   137 1   
   137    54    55 1   
   138    54   138 1   
   139    54   139 1   
   140    55   140 1   
   141    55   141 1   
   142    55   142 1   
   143    98   143 1   
   144    99   143 1   
@<TRIPOS>SUBSTRUCTURE
     1 49Y         1 TEMP              0 ****  ****    0 ROOT
