@<TRIPOS>MOLECULE
49Y
  143   144     1     0     0
SMALL
abcg2


@<TRIPOS>ATOM
      1 C4           4.6170    -0.8940     2.6270 c3         1 49Y       0.135300
      2 C14         15.7480     3.3770    -1.5700 c3         1 49Y      -0.074400
      3 C5           6.0030    -1.3200     2.1610 c3         1 49Y      -0.109400
      4 C6           6.9890    -0.1580     2.0950 c3         1 49Y      -0.076400
      5 C11         12.8900     1.2220     0.0030 c3         1 49Y      -0.073400
      6 C7           8.3590    -0.5490     1.5570 c3         1 49Y      -0.074400
      7 C8           9.2650     0.6600     1.3500 c3         1 49Y      -0.075400
      8 C9          10.6600     0.3100     0.8480 c3         1 49Y      -0.073400
      9 C10         11.4790     1.5410     0.4830 c3         1 49Y      -0.075400
     10 C12         13.6330     2.4510    -0.5060 c3         1 49Y      -0.074400
     11 C13         15.0470     2.1540    -0.9910 c3         1 49Y      -0.074400
     12 N2           1.8280    -0.5490     1.7120 ns         1 49Y      -0.506900
     13 C3           3.5880    -2.0280     2.5320 c3         1 49Y       0.138300
     14 CCL        -21.7810     1.8610    -0.6690 c3         1 49Y      -0.088100
     15 CCK        -20.5070     1.7140     0.1510 c3         1 49Y      -0.074400
     16 CCJ        -19.2440     1.8570    -0.6880 c3         1 49Y      -0.075400
     17 CCI        -17.9600     1.7160     0.1200 c3         1 49Y      -0.074400
     18 CCH        -16.7000     1.8770    -0.7210 c3         1 49Y      -0.074400
     19 CCG        -15.4140     1.7450     0.0850 c3         1 49Y      -0.074400
     20 CCF        -14.1570     1.9300    -0.7560 c3         1 49Y      -0.074400
     21 CCE        -12.8680     1.8150     0.0460 c3         1 49Y      -0.074400
     22 CCD        -11.6180     2.0460    -0.7940 c3         1 49Y      -0.073400
     23 CCB         -9.1090     2.2870    -0.8200 cx         1 49Y      -0.115700
     24 CCA         -8.4650     1.2400    -1.6820 cx         1 49Y      -0.133400
     25 CBZ         -7.7510     1.7650    -0.4690 cx         1 49Y      -0.117700
     26 CBY         -6.5370     2.6440    -0.6250 c3         1 49Y      -0.046400
     27 CAH         -5.2470     1.8700    -0.8720 c3         1 49Y      -0.071400
     28 CAG         -4.0340     2.7860    -0.9680 c3         1 49Y      -0.075400
     29 CAF         -2.7280     2.0360    -1.2320 c3         1 49Y      -0.046200
     30 CAE         -1.5590     2.9650    -1.3100 c2         1 49Y      -0.216200
     31 CAD         -0.5470     3.0630    -0.4500 c2         1 49Y      -0.218200
     32 CAC         -0.3170     2.2380     0.7780 c3         1 49Y      -0.039200
     33 CAB          1.0000     1.4690     0.6870 c3         1 49Y      -0.153400
     34 CAA          1.2770     0.6580     1.9350 c          1 49Y       0.604100
     35 OAA          1.0290     1.0850     3.0530 o          1 49Y      -0.596100
     36 C2           2.1530    -1.5100     2.7440 c3         1 49Y       0.083700
     37 C1           1.1090    -2.6150     2.7600 c3         1 49Y       0.144600
     38 O1A          1.1390    -3.2520     1.5000 os         1 49Y      -0.482000
     39 C1A          0.0490    -4.0630     1.2130 c6         1 49Y       0.361300
     40 O6A         -1.1380    -3.3360     1.0510 os         1 49Y      -0.453000
     41 C5M         -1.1390    -2.4130    -0.0260 c6         1 49Y       0.173300
     42 C6A         -2.4730    -1.6980    -0.0250 c3         1 49Y       0.169600
     43 O5A         -2.5470    -0.8820     1.1210 oh         1 49Y      -0.718000
     44 C4A         -0.8580    -3.1000    -1.3560 c6         1 49Y       0.146300
     45 O4A         -1.9480    -3.9270    -1.6840 oh         1 49Y      -0.715000
     46 C3A          0.4400    -3.8980    -1.2490 c6         1 49Y       0.141300
     47 O3A          0.6190    -4.5870    -2.4630 oh         1 49Y      -0.673000
     48 C2A          0.3620    -4.8500    -0.0630 c6         1 49Y       0.115300
     49 O2A          1.5780    -5.5490     0.0170 oh         1 49Y      -0.711000
     50 O3           3.8830    -3.0730     3.4270 oh         1 49Y      -0.649000
     51 O4           4.6340    -0.3590     3.9410 oh         1 49Y      -0.659000
     52 C15         17.1600     3.0890    -2.0650 c3         1 49Y      -0.074400
     53 C16         17.8440     4.3090    -2.6690 c3         1 49Y      -0.075400
     54 C17         19.2560     4.0270    -3.1680 c3         1 49Y      -0.075400
     55 C18         19.9210     5.2520    -3.7820 c3         1 49Y      -0.088100
     56 H1           4.2830    -0.0850     1.9690 h1         1 49Y       0.074700
     57 H2          15.1500     3.7760    -2.3970 hc         1 49Y       0.037200
     58 H3          15.7840     4.1680    -0.8130 hc         1 49Y       0.037200
     59 H4           6.3910    -2.1150     2.8080 hc         1 49Y       0.051700
     60 H5           5.9080    -1.7620     1.1650 hc         1 49Y       0.051700
     61 H6           6.5650     0.6270     1.4580 hc         1 49Y       0.043200
     62 H7           7.1110     0.2910     3.0850 hc         1 49Y       0.043200
     63 H8          13.4590     0.7580     0.8170 hc         1 49Y       0.037200
     64 H9          12.8400     0.4750    -0.7970 hc         1 49Y       0.037200
     65 H10          8.8360    -1.2590     2.2410 hc         1 49Y       0.038200
     66 H11          8.2440    -1.0750     0.6030 hc         1 49Y       0.038200
     67 H12          8.7860     1.3390     0.6360 hc         1 49Y       0.037700
     68 H13          9.3460     1.2200     2.2890 hc         1 49Y       0.037700
     69 H14         11.1870    -0.2750     1.6100 hc         1 49Y       0.037200
     70 H15         10.5800    -0.3400    -0.0310 hc         1 49Y       0.037200
     71 H16         11.5310     2.2170     1.3440 hc         1 49Y       0.037200
     72 H17         10.9530     2.0960    -0.3030 hc         1 49Y       0.037200
     73 H18         13.0600     2.8990    -1.3260 hc         1 49Y       0.037200
     74 H19         13.6720     3.2090     0.2840 hc         1 49Y       0.037200
     75 H20         15.0100     1.3650    -1.7510 hc         1 49Y       0.037200
     76 H21         15.6410     1.7500    -0.1630 hc         1 49Y       0.037200
     77 H22          1.9470    -0.8470     0.7570 hn         1 49Y       0.312500
     78 H23          3.6550    -2.4620     1.5290 h1         1 49Y       0.085700
     79 H24        -21.8400     1.0980    -1.4480 hc         1 49Y       0.031367
     80 H25        -22.6730     1.7700    -0.0490 hc         1 49Y       0.031367
     81 H26        -21.8210     2.8350    -1.1620 hc         1 49Y       0.031367
     82 H27        -20.4980     2.4640     0.9490 hc         1 49Y       0.036700
     83 H28        -20.5020     0.7410     0.6510 hc         1 49Y       0.036700
     84 H29        -19.2540     1.1080    -1.4880 hc         1 49Y       0.036700
     85 H30        -19.2510     2.8320    -1.1880 hc         1 49Y       0.036700
     86 H31        -17.9560     2.4590     0.9260 hc         1 49Y       0.036700
     87 H32        -17.9470     0.7370     0.6130 hc         1 49Y       0.036700
     88 H33        -16.7030     1.1340    -1.5260 hc         1 49Y       0.036700
     89 H34        -16.7180     2.8560    -1.2140 hc         1 49Y       0.036700
     90 H35        -15.4180     2.4810     0.8970 hc         1 49Y       0.036700
     91 H36        -15.3870     0.7620     0.5690 hc         1 49Y       0.036700
     92 H37        -14.1490     1.1920    -1.5660 hc         1 49Y       0.037200
     93 H38        -14.1910     2.9110    -1.2440 hc         1 49Y       0.037200
     94 H39        -12.8880     2.5400     0.8680 hc         1 49Y       0.037200
     95 H40        -12.8180     0.8270     0.5160 hc         1 49Y       0.037200
     96 H41        -11.5840     1.3190    -1.6120 hc         1 49Y       0.038700
     97 H42        -11.6800     3.0320    -1.2680 hc         1 49Y       0.038700
     98 H43        -10.3770     2.6480     0.8590 hc         1 49Y       0.040700
     99 H44        -10.2220     0.9560     0.4340 hc         1 49Y       0.040700
    100 H45         -9.1190     3.2900    -1.2400 hc         1 49Y       0.073700
    101 H46         -8.8700     0.2350    -1.6440 hc         1 49Y       0.069700
    102 H47         -8.0920     1.5290    -2.6580 hc         1 49Y       0.069700
    103 H48         -7.7100     1.0860     0.3800 hc         1 49Y       0.074700
    104 H49         -6.6980     3.3410    -1.4540 hc         1 49Y       0.041700
    105 H50         -6.4210     3.2640     0.2710 hc         1 49Y       0.041700
    106 H51         -5.0940     1.1460    -0.0630 hc         1 49Y       0.035700
    107 H52         -5.3430     1.2820    -1.7910 hc         1 49Y       0.035700
    108 H53         -4.1970     3.5220    -1.7620 hc         1 49Y       0.042200
    109 H54         -3.9370     3.3570    -0.0390 hc         1 49Y       0.042200
    110 H55         -2.5800     1.2850    -0.4550 hc         1 49Y       0.044200
    111 H56         -2.8190     1.4900    -2.1780 hc         1 49Y       0.044200
    112 H57         -1.5700     3.6520    -2.1520 ha         1 49Y       0.165000
    113 H58          0.2150     3.8130    -0.6480 ha         1 49Y       0.165000
    114 H59         -0.2820     2.8940     1.6520 hc         1 49Y       0.067200
    115 H60         -1.1330     1.5340     0.9470 hc         1 49Y       0.067200
    116 H61          0.9970     0.8310    -0.2000 hc         1 49Y       0.053700
    117 H62          1.8310     2.1700     0.5560 hc         1 49Y       0.053700
    118 H63          2.1040    -0.9930     3.7060 h1         1 49Y       0.101700
    119 H64          1.3040    -3.3330     3.5640 h1         1 49Y       0.051200
    120 H65          0.1310    -2.1620     2.9530 h1         1 49Y       0.051200
    121 H66         -0.1520    -4.7530     2.0450 h2         1 49Y       0.070700
    122 H67         -0.3560    -1.6540     0.1160 h1         1 49Y       0.055700
    123 H68         -2.5390    -1.1030    -0.9470 h1         1 49Y       0.037700
    124 H69         -3.2900    -2.4270    -0.0530 h1         1 49Y       0.037700
    125 H70         -3.4330    -0.5120     1.1690 ho         1 49Y       0.507000
    126 H71         -0.7190    -2.3140    -2.1140 h1         1 49Y       0.049700
    127 H72         -1.7070    -4.4370    -2.4650 ho         1 49Y       0.522000
    128 H73          1.2610    -3.1870    -1.0810 h1         1 49Y       0.060700
    129 H74          1.3300    -5.2270    -2.3460 ho         1 49Y       0.469000
    130 H75         -0.4770    -5.5390    -0.2240 h1         1 49Y       0.064700
    131 H76          1.4410    -6.3550     0.5240 ho         1 49Y       0.513000
    132 H77          3.8320    -2.7250     4.3250 ho         1 49Y       0.441000
    133 H78          5.3370    -0.7840     4.4420 ho         1 49Y       0.441000
    134 H79         17.7660     2.7050    -1.2360 hc         1 49Y       0.036700
    135 H80         17.1250     2.2870    -2.8110 hc         1 49Y       0.036700
    136 H81         17.2370     4.6900    -3.4980 hc         1 49Y       0.036700
    137 H82         17.8780     5.1130    -1.9250 hc         1 49Y       0.036700
    138 H83         19.8640     3.6530    -2.3380 hc         1 49Y       0.036700
    139 H84         19.2240     3.2200    -3.9070 hc         1 49Y       0.036700
    140 H85         20.9310     5.0310    -4.1290 hc         1 49Y       0.031367
    141 H86         19.3510     5.6180    -4.6380 hc         1 49Y       0.031367
    142 H87         19.9900     6.0680    -3.0600 hc         1 49Y       0.031367
    143 CCC        -10.3240     1.9600     0.0080 c3         1 49Y      -0.045400
@<TRIPOS>BOND
     1     1     3 1   
     2     1    13 1   
     3     1    51 1   
     4     1    56 1   
     5     2    11 1   
     6     2    52 1   
     7     2    57 1   
     8     2    58 1   
     9     3     4 1   
    10     3    59 1   
    11     3    60 1   
    12     4     6 1   
    13     4    61 1   
    14     4    62 1   
    15     5     9 1   
    16     5    10 1   
    17     5    63 1   
    18     5    64 1   
    19     6     7 1   
    20     6    65 1   
    21     6    66 1   
    22     7     8 1   
    23     7    67 1   
    24     7    68 1   
    25     8     9 1   
    26     8    69 1   
    27     8    70 1   
    28     9    71 1   
    29     9    72 1   
    30    10    11 1   
    31    10    73 1   
    32    10    74 1   
    33    11    75 1   
    34    11    76 1   
    35    12    34 1   
    36    12    36 1   
    37    12    77 1   
    38    13    36 1   
    39    13    50 1   
    40    13    78 1   
    41    14    15 1   
    42    14    79 1   
    43    14    80 1   
    44    14    81 1   
    45    15    16 1   
    46    15    82 1   
    47    15    83 1   
    48    16    17 1   
    49    16    84 1   
    50    16    85 1   
    51    17    18 1   
    52    17    86 1   
    53    17    87 1   
    54    18    19 1   
    55    18    88 1   
    56    18    89 1   
    57    19    20 1   
    58    19    90 1   
    59    19    91 1   
    60    20    21 1   
    61    20    92 1   
    62    20    93 1   
    63    21    22 1   
    64    21    94 1   
    65    21    95 1   
    66    22    96 1   
    67    22    97 1   
    68    22   143 1   
    69    23    24 1   
    70    23    25 1   
    71    23   100 1   
    72    23   143 1   
    73    24    25 1   
    74    24   101 1   
    75    24   102 1   
    76    25    26 1   
    77    25   103 1   
    78    26    27 1   
    79    26   104 1   
    80    26   105 1   
    81    27    28 1   
    82    27   106 1   
    83    27   107 1   
    84    28    29 1   
    85    28   108 1   
    86    28   109 1   
    87    29    30 1   
    88    29   110 1   
    89    29   111 1   
    90    30    31 2   
    91    30   112 1   
    92    31    32 1   
    93    31   113 1   
    94    32    33 1   
    95    32   114 1   
    96    32   115 1   
    97    33    34 1   
    98    33   116 1   
    99    33   117 1   
   100    34    35 2   
   101    36    37 1   
   102    36   118 1   
   103    37    38 1   
   104    37   119 1   
   105    37   120 1   
   106    38    39 1   
   107    39    40 1   
   108    39    48 1   
   109    39   121 1   
   110    40    41 1   
   111    41    42 1   
   112    41    44 1   
   113    41   122 1   
   114    42    43 1   
   115    42   123 1   
   116    42   124 1   
   117    43   125 1   
   118    44    45 1   
   119    44    46 1   
   120    44   126 1   
   121    45   127 1   
   122    46    47 1   
   123    46    48 1   
   124    46   128 1   
   125    47   129 1   
   126    48    49 1   
   127    48   130 1   
   128    49   131 1   
   129    50   132 1   
   130    51   133 1   
   131    52    53 1   
   132    52   134 1   
   133    52   135 1   
   134    53    54 1   
   135    53   136 1   
   136    53   137 1   
   137    54    55 1   
   138    54   138 1   
   139    54   139 1   
   140    55   140 1   
   141    55   141 1   
   142    55   142 1   
   143    98   143 1   
   144    99   143 1   
@<TRIPOS>SUBSTRUCTURE
     1 49Y         1 TEMP              0 ****  ****    0 ROOT
