@<TRIPOS>MOLECULE
49Z
   33    34     1     0     0
SMALL
No Charge or Current Charge


@<TRIPOS>ATOM
      1 C16          5.4150     1.4520     0.0910 ca         1 49Z      -0.125000
      2 C17          6.0380     0.2400    -0.2520 ca         1 49Z      -0.085000
      3 C14          4.0550     1.4720     0.4500 ca         1 49Z      -0.085000
      4 C13          5.2970    -0.9540    -0.2370 ca         1 49Z      -0.150000
      5 C4          -4.8790     1.3500     0.2370 cc         1 49Z      -0.140000
      6 C5          -3.5670     1.5790    -0.2450 cc         1 49Z      -0.132000
      7 C7           3.3050     0.2780     0.4690 ca         1 49Z      -0.117300
      8 C6           3.9390    -0.9350     0.1210 ca         1 49Z       0.172000
      9 C3          -5.2100     0.0220     0.3180 cd         1 49Z      -0.208300
     10 C2          -2.8790     0.4290    -0.5370 cd         1 49Z      -0.215300
     11 C12          1.8280     0.3120     0.8550 c3         1 49Z      -0.028100
     12 C10         -1.4830     0.2980    -1.0730 c3         1 49Z       0.234100
     13 C15          0.9030     0.2880    -0.3800 c3         1 49Z       0.163800
     14 N9          -0.5130     0.3370     0.0300 n7         1 49Z      -0.869400
     15 F8           3.2450    -2.0950     0.1260 f          1 49Z      -0.180000
     16 S1          -3.8660    -1.0110    -0.2160 ss         1 49Z       0.224000
     17 H1           5.9860     2.3780     0.0790 ha         1 49Z       0.118000
     18 H2           7.0900     0.2270    -0.5290 ha         1 49Z       0.118000
     19 H3           3.5850     2.4180     0.7110 ha         1 49Z       0.114000
     20 H4           5.7730    -1.8950    -0.5030 ha         1 49Z       0.132000
     21 H5          -5.5460     2.1630     0.5110 ha         1 49Z       0.130000
     22 H6          -3.1600     2.5800    -0.3670 ha         1 49Z       0.129000
     23 H7          -6.9720    -1.1780    -0.0110 hc         1 49Z       0.045033
     24 H8          -6.3530    -1.2320     1.6490 hc         1 49Z       0.045033
     25 H9          -7.2270     0.1970     1.0750 hc         1 49Z       0.045033
     26 H10          1.5870    -0.5410     1.5010 hc         1 49Z       0.059200
     27 H11          1.6130     1.2110     1.4460 hc         1 49Z       0.059200
     28 H12         -1.3960    -0.6450    -1.6320 h1         1 49Z       0.042700
     29 H13         -1.2990     1.1200    -1.7800 h1         1 49Z       0.042700
     30 H14          1.1470     1.1450    -1.0230 h1         1 49Z       0.035700
     31 H15          1.1020    -0.6270    -0.9550 h1         1 49Z       0.035700
     32 H16         -0.6720     1.2120     0.5420 hn         1 49Z       0.412000
     33 C11         -6.5100    -0.5790     0.7830 c3         1 49Z      -0.019800
@<TRIPOS>BOND
     1     1     2 ar  
     2     1     3 ar  
     3     1    17 1   
     4     2     4 ar  
     5     2    18 1   
     6     3     7 ar  
     7     3    19 1   
     8     4     8 ar  
     9     4    20 1   
    10     5     6 1   
    11     5     9 2   
    12     5    21 1   
    13     6    10 2   
    14     6    22 1   
    15     7     8 ar  
    16     7    11 1   
    17     8    15 1   
    18     9    16 1   
    19     9    33 1   
    20    10    12 1   
    21    10    16 1   
    22    11    13 1   
    23    11    26 1   
    24    11    27 1   
    25    12    14 1   
    26    12    28 1   
    27    12    29 1   
    28    13    14 1   
    29    13    30 1   
    30    13    31 1   
    31    14    32 1   
    32    23    33 1   
    33    24    33 1   
    34    25    33 1   
@<TRIPOS>SUBSTRUCTURE
     1 49Z         1 TEMP              0 ****  ****    0 ROOT
