@<TRIPOS>MOLECULE
49Z
   33    34     1     0     0
SMALL
abcg2


@<TRIPOS>ATOM
      1 C16          5.3980     1.1720     0.4380 ca         1 49Z      -0.125000
      2 C17          5.9230     0.0610    -0.2080 ca         1 49Z      -0.085000
      3 C14          4.0550     1.1970     0.7890 ca         1 49Z      -0.085000
      4 C13          5.1030    -1.0200    -0.5000 ca         1 49Z      -0.150000
      5 C4          -5.1300     1.0810    -0.4020 cc         1 49Z      -0.140000
      6 C5          -3.9090     1.5050    -1.0030 cc         1 49Z      -0.132000
      7 C7           3.2060     0.1280     0.5110 ca         1 49Z      -0.117300
      8 C6           3.7720    -0.9610    -0.1360 ca         1 49Z       0.172000
      9 C3          -4.9770     0.0230     0.4410 cd         1 49Z      -0.208300
     10 C2          -2.8390     0.7600    -0.6180 cd         1 49Z      -0.215300
     11 C12          1.7480     0.1680     0.8660 c3         1 49Z      -0.028100
     12 C10         -1.4140     0.8440    -1.0550 c3         1 49Z       0.234100
     13 C15          0.8730     0.5230    -0.3340 c3         1 49Z       0.163800
     14 N9          -0.5230     0.5700     0.0540 n7         1 49Z      -0.869400
     15 F8           2.9860    -2.0170    -0.4230 f          1 49Z      -0.180000
     16 S1          -3.3190    -0.4630     0.5040 ss         1 49Z       0.224000
     17 H1           6.0330     2.0160     0.6720 ha         1 49Z       0.118000
     18 H2           6.9680     0.0300    -0.4850 ha         1 49Z       0.118000
     19 H3           3.6480     2.0660     1.2930 ha         1 49Z       0.114000
     20 H4           5.4910    -1.8990    -1.0000 ha         1 49Z       0.132000
     21 H5          -6.0860     1.5550    -0.5810 ha         1 49Z       0.130000
     22 H6          -3.8340     2.3300    -1.6980 ha         1 49Z       0.129000
     23 H7          -6.0340    -1.7420     1.0710 hc         1 49Z       0.045033
     24 H8          -5.8510    -0.5270     2.3280 hc         1 49Z       0.045033
     25 H9          -7.0010    -0.2710     1.0190 hc         1 49Z       0.045033
     26 H10          1.4180    -0.7890     1.2780 hc         1 49Z       0.059200
     27 H11          1.5980     0.9140     1.6500 hc         1 49Z       0.059200
     28 H12         -1.2220     0.0940    -1.8290 h1         1 49Z       0.042700
     29 H13         -1.2500     1.8230    -1.5290 h1         1 49Z       0.042700
     30 H14          1.2270     1.4680    -0.7730 h1         1 49Z       0.035700
     31 H15          0.9850    -0.2400    -1.1090 h1         1 49Z       0.035700
     32 H16         -0.6490     1.2840     0.7620 hn         1 49Z       0.412000
     33 C11         -6.0160    -0.6680     1.2590 c3         1 49Z      -0.019800
@<TRIPOS>BOND
     1     1     2 ar  
     2     1     3 ar  
     3     1    17 1   
     4     2     4 ar  
     5     2    18 1   
     6     3     7 ar  
     7     3    19 1   
     8     4     8 ar  
     9     4    20 1   
    10     5     6 1   
    11     5     9 2   
    12     5    21 1   
    13     6    10 2   
    14     6    22 1   
    15     7     8 ar  
    16     7    11 1   
    17     8    15 1   
    18     9    16 1   
    19     9    33 1   
    20    10    12 1   
    21    10    16 1   
    22    11    13 1   
    23    11    26 1   
    24    11    27 1   
    25    12    14 1   
    26    12    28 1   
    27    12    29 1   
    28    13    14 1   
    29    13    30 1   
    30    13    31 1   
    31    14    32 1   
    32    23    33 1   
    33    24    33 1   
    34    25    33 1   
@<TRIPOS>SUBSTRUCTURE
     1 49Z         1 TEMP              0 ****  ****    0 ROOT
