@<TRIPOS>MOLECULE
4A0
   48    51     1     0     0
SMALL
No Charge or Current Charge


@<TRIPOS>ATOM
      1 C20          5.8990     1.4760     0.6120 ca         1 4A0      -0.147000
      2 C21          6.5780     0.2630     0.8080 ca         1 4A0      -0.068000
      3 C17          4.6200     1.4830     0.0310 ca         1 4A0      -0.060000
      4 C18          5.9740    -0.9450     0.4220 ca         1 4A0      -0.205000
      5 C5           4.0070     0.2750    -0.3620 ca         1 4A0      -0.108300
      6 C9           4.6950    -0.9440    -0.1600 ca         1 4A0       0.140100
      7 C10         -4.6060     0.0680    -1.6300 c6         1 4A0      -0.067400
      8 C11         -5.0940     1.2010     0.5910 c6         1 4A0      -0.067400
      9 C12         -5.0080    -1.3340     0.4490 c6         1 4A0      -0.067400
     10 C6          -2.7690     1.3420    -0.4240 c6         1 4A0      -0.063400
     11 C8          -2.6820    -1.1960    -0.5650 c6         1 4A0      -0.063400
     12 C7          -3.1690    -0.0610     1.6510 c6         1 4A0      -0.063400
     13 C2          -4.2930     1.3050    -0.7390 c6         1 4A0      -0.058700
     14 C4          -4.2060    -1.2340    -0.8790 c6         1 4A0      -0.058700
     15 C3          -4.6930    -0.0990     1.3410 c6         1 4A0      -0.058700
     16 C1          -2.3320     0.0410     0.3310 c6         1 4A0      -0.042000
     17 C16          2.6210     0.3150    -0.9970 c3         1 4A0       0.216100
     18 C15         -0.8080     0.0770     0.7000 c3         1 4A0      -0.072400
     19 C19          0.1940     0.2040    -0.4730 c3         1 4A0       0.157800
     20 N13          1.5760     0.2100     0.0360 n7         1 4A0      -0.856400
     21 O14          4.1320    -2.1340    -0.5210 oh         1 4A0      -0.544100
     22 H1           6.3640     2.4130     0.9120 ha         1 4A0       0.117000
     23 H2           7.5690     0.2600     1.2580 ha         1 4A0       0.112000
     24 H3           4.1010     2.4280    -0.1140 ha         1 4A0       0.116000
     25 H4           6.5070    -1.8800     0.5790 ha         1 4A0       0.111000
     26 H6          -4.0570     0.1370    -2.5790 hc         1 4A0       0.038200
     27 H7          -4.8920     2.0760     1.2230 hc         1 4A0       0.038200
     28 H8          -6.1740     1.2060     0.3860 hc         1 4A0       0.038200
     29 H9          -6.0850    -1.3860     0.2390 hc         1 4A0       0.038200
     30 H10         -4.7500    -2.2610     0.9790 hc         1 4A0       0.038200
     31 H11         -2.2130     1.4500    -1.3650 hc         1 4A0       0.039033
     32 H12         -2.5330     2.2300     0.1780 hc         1 4A0       0.039033
     33 H13         -2.3810    -2.1270    -0.0630 hc         1 4A0       0.039033
     34 H14         -2.1210    -1.1620    -1.5090 hc         1 4A0       0.039033
     35 H15         -2.9480     0.7910     2.3090 hc         1 4A0       0.039033
     36 H16         -2.8850    -0.9620     2.2120 hc         1 4A0       0.039033
     37 H17         -4.5810     2.2230    -1.2700 hc         1 4A0       0.047367
     38 H18         -4.4290    -2.1060    -1.5100 hc         1 4A0       0.047367
     39 H19         -5.2580    -0.1710     2.2800 hc         1 4A0       0.047367
     40 H20          2.5100     1.2550    -1.5540 h1         1 4A0       0.036200
     41 H21          2.5260    -0.5010    -1.7260 h1         1 4A0       0.036200
     42 H22         -0.6260     0.9130     1.3860 hc         1 4A0       0.044700
     43 H23         -0.5560    -0.8310     1.2630 hc         1 4A0       0.044700
     44 H24          0.0550    -0.6370    -1.1660 h1         1 4A0       0.028700
     45 H25         -0.0040     1.1320    -1.0250 h1         1 4A0       0.028700
     46 H26          1.7370    -0.6740     0.5330 hn         1 4A0       0.413000
     47 H28          4.7640    -2.8520    -0.3030 ho         1 4A0       0.465000
     48 H5          -5.6740     0.0450    -1.8870 hc         1 4A0       0.038200
@<TRIPOS>BOND
     1     1     2 ar  
     2     1     3 ar  
     3     1    22 1   
     4     2     4 ar  
     5     2    23 1   
     6     3     5 ar  
     7     3    24 1   
     8     4     6 ar  
     9     4    25 1   
    10     5     6 ar  
    11     5    17 1   
    12     6    21 1   
    13     7    13 1   
    14     7    14 1   
    15     7    26 1   
    16     7    48 1   
    17     8    13 1   
    18     8    15 1   
    19     8    27 1   
    20     8    28 1   
    21     9    14 1   
    22     9    15 1   
    23     9    29 1   
    24     9    30 1   
    25    10    13 1   
    26    10    16 1   
    27    10    31 1   
    28    10    32 1   
    29    11    14 1   
    30    11    16 1   
    31    11    33 1   
    32    11    34 1   
    33    12    15 1   
    34    12    16 1   
    35    12    35 1   
    36    12    36 1   
    37    13    37 1   
    38    14    38 1   
    39    15    39 1   
    40    16    18 1   
    41    17    20 1   
    42    17    40 1   
    43    17    41 1   
    44    18    19 1   
    45    18    42 1   
    46    18    43 1   
    47    19    20 1   
    48    19    44 1   
    49    19    45 1   
    50    20    46 1   
    51    21    47 1   
@<TRIPOS>SUBSTRUCTURE
     1 4A0         1 TEMP              0 ****  ****    0 ROOT
