@<TRIPOS>MOLECULE
4A0
   48    51     1     0     0
SMALL
bcc


@<TRIPOS>ATOM
      1 C20          5.9400     1.5390    -0.0190 ca         1 4A0      -0.165000
      2 C21          6.5290     0.4580     0.6200 ca         1 4A0      -0.086000
      3 C17          4.6510     1.4090    -0.5200 ca         1 4A0      -0.078000
      4 C18          5.8360    -0.7370     0.7540 ca         1 4A0      -0.223000
      5 C5           3.9340     0.2240    -0.4040 ca         1 4A0      -0.108300
      6 C9           4.5460    -0.8550     0.2450 ca         1 4A0       0.140100
      7 C10         -4.5040     0.3730    -1.5970 c6         1 4A0      -0.067400
      8 C11         -5.0150     1.0980     0.7390 c6         1 4A0      -0.067400
      9 C12         -4.9490    -1.3340     0.1690 c6         1 4A0      -0.067400
     10 C6          -2.7060     1.3730    -0.1780 c6         1 4A0      -0.063400
     11 C8          -2.6390    -1.0560    -0.7500 c6         1 4A0      -0.063400
     12 C7          -3.1480    -0.3320     1.5750 c6         1 4A0      -0.063400
     13 C2          -4.1990     1.4130    -0.5160 c6         1 4A0      -0.058700
     14 C4          -4.1320    -1.0200    -1.0860 c6         1 4A0      -0.058700
     15 C3          -4.6430    -0.2940     1.2490 c6         1 4A0      -0.058700
     16 C1          -2.3010    -0.0190     0.3310 c6         1 4A0      -0.042000
     17 C16          2.5350     0.1080    -0.9450 c3         1 4A0       0.216100
     18 C15         -0.8220    -0.0630     0.7240 c3         1 4A0      -0.072400
     19 C19          0.1830     0.0600    -0.4130 c3         1 4A0       0.157800
     20 N13          1.5360     0.1540     0.1120 n7         1 4A0      -0.801200
     21 O14          3.8340    -1.9980     0.3550 oh         1 4A0      -0.505100
     22 H1           6.4760     2.4730    -0.1270 ha         1 4A0       0.135000
     23 H2           7.5320     0.5390     1.0190 ha         1 4A0       0.130000
     24 H3           4.1840     2.2490    -1.0200 ha         1 4A0       0.134000
     25 H4           6.3000    -1.5790     1.2540 ha         1 4A0       0.129000
     26 H6          -3.9460     0.6060    -2.5100 hc         1 4A0       0.038200
     27 H7          -4.8210     1.8480     1.5120 hc         1 4A0       0.038200
     28 H8          -6.0860     1.1470     0.5160 hc         1 4A0       0.038200
     29 H9          -6.0190    -1.3300    -0.0680 hc         1 4A0       0.038200
     30 H10         -4.7090    -2.3380     0.5330 hc         1 4A0       0.038200
     31 H11         -2.1230     1.6460    -1.0630 hc         1 4A0       0.039033
     32 H12         -2.4780     2.1220     0.5900 hc         1 4A0       0.039033
     33 H13         -2.3560    -2.0560    -0.4000 hc         1 4A0       0.039033
     34 H14         -2.0560    -0.8650    -1.6570 hc         1 4A0       0.039033
     35 H15         -2.9180     0.3910     2.3660 hc         1 4A0       0.039033
     36 H16         -2.8760    -1.3210     1.9640 hc         1 4A0       0.039033
     37 H17         -4.4590     2.4110    -0.8820 hc         1 4A0       0.047367
     38 H18         -4.3450    -1.7650    -1.8590 hc         1 4A0       0.047367
     39 H19         -5.2160    -0.5240     2.1530 hc         1 4A0       0.047367
     40 H20          2.3520     0.9520    -1.6150 h1         1 4A0       0.036200
     41 H21          2.4450    -0.7960    -1.5670 h1         1 4A0       0.036200
     42 H22         -0.6300     0.7330     1.4520 hc         1 4A0       0.044700
     43 H23         -0.6320    -1.0100     1.2450 hc         1 4A0       0.044700
     44 H24          0.0700    -0.7890    -1.1040 h1         1 4A0       0.028700
     45 H25         -0.0110     0.9610    -1.0040 h1         1 4A0       0.028700
     46 H26          1.6880    -0.6270     0.7390 hn         1 4A0       0.357800
     47 H28          4.3350    -2.6630     0.8390 ho         1 4A0       0.426000
     48 H5          -5.5660     0.4070    -1.8630 hc         1 4A0       0.038200
@<TRIPOS>BOND
     1     1     2 ar  
     2     1     3 ar  
     3     1    22 1   
     4     2     4 ar  
     5     2    23 1   
     6     3     5 ar  
     7     3    24 1   
     8     4     6 ar  
     9     4    25 1   
    10     5     6 ar  
    11     5    17 1   
    12     6    21 1   
    13     7    13 1   
    14     7    14 1   
    15     7    26 1   
    16     7    48 1   
    17     8    13 1   
    18     8    15 1   
    19     8    27 1   
    20     8    28 1   
    21     9    14 1   
    22     9    15 1   
    23     9    29 1   
    24     9    30 1   
    25    10    13 1   
    26    10    16 1   
    27    10    31 1   
    28    10    32 1   
    29    11    14 1   
    30    11    16 1   
    31    11    33 1   
    32    11    34 1   
    33    12    15 1   
    34    12    16 1   
    35    12    35 1   
    36    12    36 1   
    37    13    37 1   
    38    14    38 1   
    39    15    39 1   
    40    16    18 1   
    41    17    20 1   
    42    17    40 1   
    43    17    41 1   
    44    18    19 1   
    45    18    42 1   
    46    18    43 1   
    47    19    20 1   
    48    19    44 1   
    49    19    45 1   
    50    20    46 1   
    51    21    47 1   
@<TRIPOS>SUBSTRUCTURE
     1 4A0         1 TEMP              0 ****  ****    0 ROOT
