@<TRIPOS>MOLECULE
4A1
   28    28     1     0     0
SMALL
abcg2


@<TRIPOS>ATOM
      1 C01         -3.5480     0.1170    -1.0910 c3         1 4A1      -0.040400
      2 C02         -3.8720     0.4080    -2.5500 c3         1 4A1      -0.082100
      3 C1           2.1340     0.0600    -0.0690 ca         1 4A1      -0.187600
      4 N1           0.0040    -0.5400     0.8590 nu         1 4A1      -0.942100
      5 O1           3.5940    -1.6530    -0.7930 o          1 4A1      -0.687500
      6 S1          -1.6290    -0.4400     0.8000 s6         1 4A1       1.203100
      7 C2           0.8980     0.4680     0.4740 ca         1 4A1       0.313000
      8 O2           1.6360    -2.2660     0.0490 o          1 4A1      -0.687500
      9 C3           0.6300     1.8280     0.6390 ca         1 4A1      -0.194000
     10 O3          -2.1050    -1.7840     1.1000 o          1 4A1      -0.564000
     11 C4           1.5680     2.7760     0.2640 ca         1 4A1      -0.099000
     12 O4          -2.0950     0.6530     1.6470 o          1 4A1      -0.564000
     13 C5           2.7910     2.3890    -0.2650 ca         1 4A1      -0.168000
     14 C6           3.0580     1.0390    -0.4210 ca         1 4A1      -0.061000
     15 C8          -2.0460    -0.0430    -0.8960 c3         1 4A1      -0.355400
     16 H1          -3.9140     0.9300    -0.4620 hc         1 4A1       0.048200
     17 H2          -4.0620    -0.7920    -0.7730 hc         1 4A1       0.048200
     18 H3          -3.3830     1.3220    -2.8880 hc         1 4A1       0.026700
     19 H4          -3.5460    -0.4050    -3.1990 hc         1 4A1       0.026700
     20 H5          -4.9460     0.5330    -2.6870 hc         1 4A1       0.026700
     21 H6           0.4340    -1.4780     0.5950 hn         1 4A1       0.592000
     22 H8          -0.3040     2.1560     1.0710 ha         1 4A1       0.124000
     23 H9           1.3370     3.8250     0.3980 ha         1 4A1       0.090000
     24 H10          3.5260     3.1300    -0.5500 ha         1 4A1       0.093000
     25 H11          4.0060     0.7230    -0.8350 ha         1 4A1       0.129000
     26 H12         -1.6450    -0.8550    -1.5060 h1         1 4A1       0.095200
     27 H13         -1.5130     0.8740    -1.1560 h1         1 4A1       0.095200
     28 C7           2.4940    -1.4010    -0.2930 c          1 4A1       0.720600
@<TRIPOS>BOND
     1     1     2 1   
     2     1    15 1   
     3     1    16 1   
     4     1    17 1   
     5     2    18 1   
     6     2    19 1   
     7     2    20 1   
     8     3     7 ar  
     9     3    14 ar  
    10     3    28 1   
    11     4     6 1   
    12     4     7 1   
    13     4    21 1   
    14     5    28 1   
    15     6    10 2   
    16     6    12 2   
    17     6    15 1   
    18     7     9 ar  
    19     8    28 1   
    20     9    11 ar  
    21     9    22 1   
    22    11    13 ar  
    23    11    23 1   
    24    13    14 ar  
    25    13    24 1   
    26    14    25 1   
    27    15    26 1   
    28    15    27 1   
@<TRIPOS>SUBSTRUCTURE
     1 4A1         1 TEMP              0 ****  ****    0 ROOT
