@<TRIPOS>MOLECULE
4A1
   28    28     1     0     0
SMALL
No Charge or Current Charge


@<TRIPOS>ATOM
      1 C01         -3.4220     0.0010    -1.1810 c3         1 4A1      -0.040400
      2 C02         -3.6180     0.2490    -2.6870 c3         1 4A1      -0.082100
      3 C1           1.9390     0.0780    -0.1870 ca         1 4A1      -0.187600
      4 N1          -0.0380    -0.3870     1.1610 nu         1 4A1      -0.942100
      5 O1           3.1910    -1.7040    -1.0910 o          1 4A1      -0.687500
      6 S1          -1.6740    -0.3280     0.9740 s6         1 4A1       1.203100
      7 C2           0.8760     0.5170     0.6460 ca         1 4A1       0.313000
      8 O2           1.2460    -2.1870    -0.3240 o          1 4A1      -0.687500
      9 C3           0.7620     1.8810     0.9760 ca         1 4A1      -0.194000
     10 O3          -2.1190    -1.6810     1.3070 o          1 4A1      -0.564000
     11 C4           1.6700     2.8230     0.4730 ca         1 4A1      -0.099000
     12 O4          -2.1500     0.8230     1.7430 o          1 4A1      -0.564000
     13 C5           2.7110     2.4030    -0.3620 ca         1 4A1      -0.168000
     14 C6           2.8470     1.0450    -0.6870 ca         1 4A1      -0.061000
     15 C8          -1.9290    -0.0460    -0.7820 c3         1 4A1      -0.355400
     16 H1          -3.9300     0.7970    -0.6200 hc         1 4A1       0.048200
     17 H2          -3.9080    -0.9450    -0.9090 hc         1 4A1       0.048200
     18 H3          -3.1720     1.2060    -2.9840 hc         1 4A1       0.026700
     19 H4          -3.1500    -0.5500    -3.2750 hc         1 4A1       0.026700
     20 H5          -4.6860     0.2770    -2.9340 hc         1 4A1       0.026700
     21 H6           0.1420    -1.3280     0.8060 hn         1 4A1       0.592000
     22 H8          -0.0290     2.2200     1.6370 ha         1 4A1       0.124000
     23 H9           1.5690     3.8740     0.7350 ha         1 4A1       0.090000
     24 H10          3.4180     3.1290    -0.7550 ha         1 4A1       0.093000
     25 H11          3.6690     0.7460    -1.3350 ha         1 4A1       0.129000
     26 H12         -1.4140    -0.8600    -1.3040 h1         1 4A1       0.095200
     27 H13         -1.4380     0.9050    -1.0140 h1         1 4A1       0.095200
     28 C7           2.1380    -1.3820    -0.5620 c          1 4A1       0.720600
@<TRIPOS>BOND
     1     1     2 1   
     2     1    15 1   
     3     1    16 1   
     4     1    17 1   
     5     2    18 1   
     6     2    19 1   
     7     2    20 1   
     8     3     7 ar  
     9     3    14 ar  
    10     3    28 1   
    11     4     6 1   
    12     4     7 1   
    13     4    21 1   
    14     5    28 1   
    15     6    10 2   
    16     6    12 2   
    17     6    15 1   
    18     7     9 ar  
    19     8    28 1   
    20     9    11 ar  
    21     9    22 1   
    22    11    13 ar  
    23    11    23 1   
    24    13    14 ar  
    25    13    24 1   
    26    14    25 1   
    27    15    26 1   
    28    15    27 1   
@<TRIPOS>SUBSTRUCTURE
     1 4A1         1 TEMP              0 ****  ****    0 ROOT
