@<TRIPOS>MOLECULE
4A2
   49    52     1     0     0
SMALL
abcg2


@<TRIPOS>ATOM
      1 FAA          5.0920    -3.3970    -0.6160 f          1 4A2      -0.116667
      2 CAC          3.9940    -2.6570    -0.7760 c3         1 4A2       0.353300
      3 FAB          4.3670    -1.5680    -1.4720 f          1 4A2      -0.116667
      4 FAG          3.1720    -3.3580    -1.5720 f          1 4A2      -0.116667
      5 CAD          3.3440    -2.2940     0.5260 ca         1 4A2      -0.192300
      6 CAE          3.9860    -2.6440     1.7110 ca         1 4A2      -0.071000
      7 CAF          3.4270    -2.3230     2.9370 ca         1 4A2      -0.122000
      8 CAK          2.2170    -1.6500     2.9790 ca         1 4A2      -0.079000
      9 CAJ          1.5800    -1.2980     1.8000 ca         1 4A2      -0.091000
     10 CAI          2.1240    -1.6060     0.5580 ca         1 4A2      -0.037300
     11 CAH          1.3490    -1.2170    -0.6880 c3         1 4A2       0.130900
     12 NAP          0.6280     0.0150    -0.5170 na         1 4A2      -0.220600
     13 CAO          1.2060     1.2630    -0.4070 ca         1 4A2      -0.071200
     14 CAN          2.5240     1.6730    -0.4400 ca         1 4A2      -0.134000
     15 CAM          2.7720     3.0360    -0.2980 ca         1 4A2      -0.079000
     16 CAW          1.7440     3.9640    -0.1270 ca         1 4A2      -0.125600
     17 CAV          2.0590     5.4460     0.0270 c          1 4A2       0.712600
     18 OAL          3.2610     5.7720    -0.0120 o          1 4A2      -0.714500
     19 OBG          1.0860     6.2100     0.1800 o          1 4A2      -0.714500
     20 CAX          0.4150     3.5300    -0.0930 ca         1 4A2      -0.081000
     21 CAY          0.1680     2.1810    -0.2340 ca         1 4A2      -0.071200
     22 NAZ         -1.0040     1.4480    -0.2370 na         1 4A2      -0.387600
     23 CBA         -0.7410     0.1180    -0.4190 cc         1 4A2       0.642300
     24 NBB         -1.5240    -0.8920    -0.5230 nf         1 4A2      -0.778100
     25 CBC         -2.8880    -0.7720    -0.3020 ca         1 4A2       0.215400
     26 CBD         -3.7640    -1.3870    -1.2080 ca         1 4A2      -0.143000
     27 CBE         -5.1200    -1.3440    -0.9970 ca         1 4A2       0.154000
     28 FBF         -5.9420    -1.9350    -1.8810 f          1 4A2      -0.180000
     29 CAS         -5.6940    -0.7060     0.1040 ca         1 4A2       0.054100
     30 OAT         -7.0380    -0.7380     0.1940 os         1 4A2      -0.331100
     31 CAU         -7.6360    -0.1070     1.3080 c3         1 4A2       0.150900
     32 CAR         -4.8260    -0.1080     1.0070 ca         1 4A2      -0.149000
     33 CAQ         -3.4490    -0.1420     0.8100 ca         1 4A2      -0.170000
     34 HAE          4.9300    -3.1690     1.6910 ha         1 4A2       0.123000
     35 HAF          3.9380    -2.5970     3.8500 ha         1 4A2       0.114000
     36 HAK          1.7660    -1.3970     3.9290 ha         1 4A2       0.117000
     37 HAJ          0.6390    -0.7670     1.8570 ha         1 4A2       0.135000
     38 HAH1         1.9860    -1.1130    -1.5650 h1         1 4A2       0.083700
     39 HAH2         0.6150    -1.9900    -0.9190 h1         1 4A2       0.083700
     40 HAN          3.3360     0.9690    -0.5690 ha         1 4A2       0.109000
     41 HAM          3.7940     3.3880    -0.3190 ha         1 4A2       0.138000
     42 HAX         -0.3920     4.2390     0.0370 ha         1 4A2       0.140000
     43 HAZ         -1.9330     1.8320    -0.1800 hn         1 4A2       0.362000
     44 HBD         -3.3720    -1.8970    -2.0790 ha         1 4A2       0.139000
     45 HAQ         -2.8130     0.3100     1.5610 ha         1 4A2       0.118000
     46 HAR         -5.2050     0.3880     1.8900 ha         1 4A2       0.111000
     47 HAU1        -8.7100    -0.2430     1.2000 h1         1 4A2       0.035700
     48 HAU2        -7.3190    -0.5570     2.2530 h1         1 4A2       0.035700
     49 HAU3        -7.4190     0.9640     1.3370 h1         1 4A2       0.035700
@<TRIPOS>BOND
     1     1     2 1   
     2     2     3 1   
     3     2     4 1   
     4     2     5 1   
     5     5     6 ar  
     6     5    10 ar  
     7     6     7 ar  
     8     6    34 1   
     9     7     8 ar  
    10     7    35 1   
    11     8     9 ar  
    12     8    36 1   
    13     9    10 ar  
    14     9    37 1   
    15    10    11 1   
    16    11    12 1   
    17    11    38 1   
    18    11    39 1   
    19    12    13 1   
    20    12    23 1   
    21    13    14 ar  
    22    13    21 ar  
    23    14    15 ar  
    24    14    40 1   
    25    15    16 ar  
    26    15    41 1   
    27    16    17 1   
    28    16    20 ar  
    29    17    18 1   
    30    17    19 1   
    31    20    21 ar  
    32    20    42 1   
    33    21    22 1   
    34    22    23 1   
    35    22    43 1   
    36    23    24 2   
    37    24    25 1   
    38    25    26 ar  
    39    25    33 ar  
    40    26    27 ar  
    41    26    44 1   
    42    27    28 1   
    43    27    29 ar  
    44    29    30 1   
    45    29    32 ar  
    46    30    31 1   
    47    31    47 1   
    48    31    48 1   
    49    31    49 1   
    50    32    33 ar  
    51    32    46 1   
    52    33    45 1   
@<TRIPOS>SUBSTRUCTURE
     1 4A2         1 TEMP              0 ****  ****    0 ROOT
