@<TRIPOS>MOLECULE
4A2
   49    52     1     0     0
SMALL
No Charge or Current Charge


@<TRIPOS>ATOM
      1 FAA          5.1200    -3.6620    -0.5360 f          1 4A2      -0.116667
      2 CAC          4.0720    -2.8230    -0.7040 c3         1 4A2       0.353300
      3 FAB          4.5310    -1.7810    -1.4340 f          1 4A2      -0.116667
      4 FAG          3.1800    -3.4890    -1.4730 f          1 4A2      -0.116667
      5 CAD          3.4530    -2.3530     0.6290 ca         1 4A2      -0.192300
      6 CAE          4.1150    -2.6550     1.8440 ca         1 4A2      -0.071000
      7 CAF          3.5820    -2.2530     3.0780 ca         1 4A2      -0.122000
      8 CAK          2.3770    -1.5450     3.1220 ca         1 4A2      -0.079000
      9 CAJ          1.7080    -1.2290     1.9310 ca         1 4A2      -0.091000
     10 CAI          2.2340    -1.6120     0.6740 ca         1 4A2      -0.037300
     11 CAH          1.4640    -1.2370    -0.6060 c3         1 4A2       0.130900
     12 NAP          0.6490    -0.0120    -0.5150 na         1 4A2      -0.220600
     13 CAO          1.1990     1.2550    -0.4760 ca         1 4A2      -0.071200
     14 CAN          2.5360     1.6670    -0.5320 ca         1 4A2      -0.134000
     15 CAM          2.8010     3.0520    -0.4630 ca         1 4A2      -0.079000
     16 CAW          1.7430     4.0010    -0.3380 ca         1 4A2      -0.125600
     17 CAV          2.0430     5.4890    -0.2630 c          1 4A2       0.712600
     18 OAL          3.2090     5.8550    -0.3160 o          1 4A2      -0.714500
     19 OBG          1.1080     6.2700    -0.1540 o          1 4A2      -0.714500
     20 CAX          0.4030     3.5320    -0.2810 ca         1 4A2      -0.081000
     21 CAY          0.1770     2.1530    -0.3530 ca         1 4A2      -0.071200
     22 NAZ         -1.0120     1.4560    -0.3140 na         1 4A2      -0.387600
     23 CBA         -0.7420     0.0950    -0.4100 cc         1 4A2       0.642300
     24 NBB         -1.6090    -0.8670    -0.3930 nf         1 4A2      -0.778100
     25 CBC         -3.0060    -0.7630    -0.2510 ca         1 4A2       0.215400
     26 CBD         -3.8300    -0.7770    -1.3840 ca         1 4A2      -0.143000
     27 CBE         -5.2210    -0.6670    -1.2390 ca         1 4A2       0.154000
     28 FBF         -6.0010    -0.6820    -2.3450 f          1 4A2      -0.180000
     29 CAS         -5.8050    -0.5390     0.0410 ca         1 4A2       0.054100
     30 OAT         -7.1820    -0.4320     0.1390 os         1 4A2      -0.331100
     31 CAU         -7.8570    -0.2990     1.4020 c3         1 4A2       0.150900
     32 CAR         -4.9680    -0.5260     1.1810 ca         1 4A2      -0.149000
     33 CAQ         -3.5730    -0.6380     1.0280 ca         1 4A2      -0.170000
     34 HAE          5.0530    -3.2060     1.8470 ha         1 4A2       0.123000
     35 HAF          4.1040    -2.4970     4.0010 ha         1 4A2       0.114000
     36 HAK          1.9590    -1.2380     4.0790 ha         1 4A2       0.117000
     37 HAJ          0.7710    -0.6820     1.9970 ha         1 4A2       0.135000
     38 HAH1         2.1580    -1.0940    -1.4410 h1         1 4A2       0.083700
     39 HAH2         0.8080    -2.0740    -0.8750 h1         1 4A2       0.083700
     40 HAN          3.3480     0.9500    -0.6230 ha         1 4A2       0.109000
     41 HAM          3.8350     3.3900    -0.5050 ha         1 4A2       0.138000
     42 HAX         -0.4340     4.2210    -0.1830 ha         1 4A2       0.140000
     43 HAZ         -1.9390     1.8440    -0.2210 hn         1 4A2       0.362000
     44 HBD         -3.3940    -0.8740    -2.3740 ha         1 4A2       0.139000
     45 HAQ         -2.9300    -0.6290     1.9050 ha         1 4A2       0.118000
     46 HAR         -5.3750    -0.4300     2.1840 ha         1 4A2       0.111000
     47 HAU1        -8.9410    -0.2300     1.2480 h1         1 4A2       0.035700
     48 HAU2        -7.6600    -1.1680     2.0430 h1         1 4A2       0.035700
     49 HAU3        -7.5300     0.6080     1.9260 h1         1 4A2       0.035700
@<TRIPOS>BOND
     1     1     2 1   
     2     2     3 1   
     3     2     4 1   
     4     2     5 1   
     5     5     6 ar  
     6     5    10 ar  
     7     6     7 ar  
     8     6    34 1   
     9     7     8 ar  
    10     7    35 1   
    11     8     9 ar  
    12     8    36 1   
    13     9    10 ar  
    14     9    37 1   
    15    10    11 1   
    16    11    12 1   
    17    11    38 1   
    18    11    39 1   
    19    12    13 1   
    20    12    23 1   
    21    13    14 ar  
    22    13    21 ar  
    23    14    15 ar  
    24    14    40 1   
    25    15    16 ar  
    26    15    41 1   
    27    16    17 1   
    28    16    20 ar  
    29    17    18 1   
    30    17    19 1   
    31    20    21 ar  
    32    20    42 1   
    33    21    22 1   
    34    22    23 1   
    35    22    43 1   
    36    23    24 2   
    37    24    25 1   
    38    25    26 ar  
    39    25    33 ar  
    40    26    27 ar  
    41    26    44 1   
    42    27    28 1   
    43    27    29 ar  
    44    29    30 1   
    45    29    32 ar  
    46    30    31 1   
    47    31    47 1   
    48    31    48 1   
    49    31    49 1   
    50    32    33 ar  
    51    32    46 1   
    52    33    45 1   
@<TRIPOS>SUBSTRUCTURE
     1 4A2         1 TEMP              0 ****  ****    0 ROOT
