@<TRIPOS>MOLECULE
4A3
   17    17     1     0     0
SMALL
bcc


@<TRIPOS>ATOM
      1 C3           0.9850     1.6570    -0.0200 ca         1 4A3      -0.192000
      2 C5          -0.8520     0.0880    -0.0370 ca         1 4A3      -0.130600
      3 C8          -2.3300    -0.2210     0.0020 c          1 4A3       0.927200
      4 O9           2.3750    -1.6760    -0.2420 oh         1 4A3      -0.535100
      5 C2           1.9250     0.6300    -0.1180 ca         1 4A3       0.076600
      6 C4          -0.3720     1.3920     0.0090 ca         1 4A3      -0.102000
      7 C6           0.0820    -0.9460    -0.0870 ca         1 4A3      -0.154000
      8 C7           1.4410    -0.6910    -0.1410 ca         1 4A3       0.040100
      9 O10         -2.6510    -1.4180    -0.0240 o          1 4A3      -0.829800
     10 O11         -3.0960     0.7620    -0.0040 o          1 4A3      -0.829800
     11 N1           3.2820     0.8790    -0.2250 nv         1 4A3      -0.809200
     12 H3           1.3330     2.6820     0.0190 ha         1 4A3       0.104000
     13 HO9          1.9580    -2.5110    -0.4810 ho         1 4A3       0.414000
     14 H4          -1.0650     2.2170     0.0610 ha         1 4A3       0.143000
     15 H6          -0.2670    -1.9710    -0.1090 ha         1 4A3       0.145000
     16 HN11         3.5530     1.7870     0.1200 hn         1 4A3       0.366300
     17 HN12         3.8720     0.1670     0.1590 hn         1 4A3       0.366300
@<TRIPOS>BOND
     1     1     5 ar  
     2     1     6 ar  
     3     1    12 1   
     4     2     3 1   
     5     2     6 ar  
     6     2     7 ar  
     7     3     9 1   
     8     3    10 1   
     9     4     8 1   
    10     4    13 1   
    11     5     8 ar  
    12     5    11 1   
    13     6    14 1   
    14     7     8 ar  
    15     7    15 1   
    16    11    16 1   
    17    11    17 1   
@<TRIPOS>SUBSTRUCTURE
     1 4A3         1 TEMP              0 ****  ****    0 ROOT
