@<TRIPOS>MOLECULE
4A3
   17    17     1     0     0
SMALL
No Charge or Current Charge


@<TRIPOS>ATOM
      1 C3           1.0020     1.6820    -0.0020 ca         1 4A3      -0.174000
      2 C5          -0.8500     0.0740    -0.0510 ca         1 4A3      -0.130600
      3 C8          -2.3450    -0.2200    -0.0300 c          1 4A3       0.716600
      4 O9           2.3650    -1.7530    -0.2370 oh         1 4A3      -0.574100
      5 C2           1.9360     0.6390    -0.0890 ca         1 4A3       0.215000
      6 C4          -0.3760     1.4050     0.0170 ca         1 4A3      -0.084000
      7 C6           0.0980    -0.9760    -0.1370 ca         1 4A3      -0.136000
      8 C7           1.4790    -0.7040    -0.1560 ca         1 4A3       0.040100
      9 O10         -2.7140    -1.3850    -0.0900 o          1 4A3      -0.724500
     10 O11         -3.1260     0.7180     0.0460 o          1 4A3      -0.724500
     11 N1           3.2790     0.9400    -0.1050 nv         1 4A3      -1.058000
     12 H3           1.3390     2.7140     0.0510 ha         1 4A3       0.086000
     13 HO9          1.8580    -2.5930    -0.2760 ho         1 4A3       0.453000
     14 H4          -1.0780     2.2340     0.0840 ha         1 4A3       0.125000
     15 H6          -0.2450    -2.0070    -0.1890 ha         1 4A3       0.127000
     16 HN11         3.5990     1.8840     0.1040 hn         1 4A3       0.421500
     17 HN12         3.9520     0.1770    -0.0560 hn         1 4A3       0.421500
@<TRIPOS>BOND
     1     1     5 ar  
     2     1     6 ar  
     3     1    12 1   
     4     2     3 1   
     5     2     6 ar  
     6     2     7 ar  
     7     3     9 1   
     8     3    10 1   
     9     4     8 1   
    10     4    13 1   
    11     5     8 ar  
    12     5    11 1   
    13     6    14 1   
    14     7     8 ar  
    15     7    15 1   
    16    11    16 1   
    17    11    17 1   
@<TRIPOS>SUBSTRUCTURE
     1 4A3         1 TEMP              0 ****  ****    0 ROOT
