@<TRIPOS>MOLECULE
4A4
   51    52     1     0     0
SMALL
bcc


@<TRIPOS>ATOM
      1 CAN          1.0530     4.1840     1.2070 c3         1 4A4      -0.181100
      2 CAM         -0.2080     3.6090     0.6110 c          1 4A4       0.676100
      3 OAO         -1.1230     4.3220     0.2250 o          1 4A4      -0.605100
      4 N2          -0.2380     2.2640     0.5480 ns         1 4A4      -0.567900
      5 C2          -1.3540     1.4900     0.0700 c6         1 4A4       0.094700
      6 C3          -2.1010     0.8010     1.2060 c6         1 4A4       0.134100
      7 O3          -2.6120     1.7940     2.0570 oh         1 4A4      -0.582800
      8 C4          -3.2080    -0.0740     0.6290 c6         1 4A4       0.078100
      9 O4          -3.8090    -0.7540     1.7110 oh         1 4A4      -0.599800
     10 C5          -2.6360    -1.0560    -0.4000 c6         1 4A4       0.120100
     11 C6          -3.7420    -1.8110    -1.1040 c3         1 4A4       0.146400
     12 O6          -3.1820    -2.7560    -1.9830 oh         1 4A4      -0.575800
     13 O5          -1.9150    -0.3460    -1.3990 os         1 4A4      -0.409600
     14 C1          -0.8710     0.4520    -0.9460 c6         1 4A4       0.331900
     15 O1           0.1320    -0.2750    -0.3050 os         1 4A4      -0.432600
     16 CAS          1.0600    -0.9910    -1.0910 c6         1 4A4       0.128100
     17 CAR          1.4030    -2.2800    -0.3520 c6         1 4A4       0.159100
     18 OAX          0.2420    -3.0420    -0.1730 oh         1 4A4      -0.576800
     19 CAQ          2.0910    -1.9540     0.9700 c6         1 4A4       0.081100
     20 OAW          2.4870    -3.1760     1.5450 oh         1 4A4      -0.607800
     21 CAP          3.2970    -1.0520     0.7110 c6         1 4A4       0.320900
     22 OAV          3.8210    -0.6650     1.9270 oh         1 4A4      -0.583800
     23 OAY          2.9080     0.1010     0.0020 os         1 4A4      -0.423600
     24 CAT          2.3600    -0.1980    -1.2640 c6         1 4A4       0.127100
     25 CAU          2.2030     1.0920    -2.0390 c3         1 4A4       0.144400
     26 OAZ          3.4860     1.6030    -2.3110 oh         1 4A4      -0.590800
     27 HAN1         1.3820     5.0370     0.6160 hc         1 4A4       0.061367
     28 HAN2         0.8400     4.5470     2.2130 hc         1 4A4       0.061367
     29 HAN3         1.8700     3.4670     1.2730 hc         1 4A4       0.061367
     30 H2           0.5530     1.7480     0.9040 hn         1 4A4       0.332500
     31 HA          -2.0380     2.1690    -0.4440 h1         1 4A4       0.103700
     32 H3          -1.3980     0.1490     1.7480 h1         1 4A4       0.058700
     33 H1          -0.4930     0.9610    -1.8400 h2         1 4A4       0.073700
     34 HB          -3.0910     1.3510     2.7660 ho         1 4A4       0.415000
     35 H4          -3.9340     0.5810     0.1260 h1         1 4A4       0.051700
     36 HC          -4.7480    -0.8630     1.5340 ho         1 4A4       0.410000
     37 H5          -1.9760    -1.7690     0.1070 h1         1 4A4       0.093700
     38 H61C        -4.3650    -2.2960    -0.3430 h1         1 4A4       0.021200
     39 H62C        -4.3830    -1.0910    -1.6320 h1         1 4A4       0.021200
     40 H6          -3.9050    -3.2400    -2.3920 ho         1 4A4       0.401000
     41 HAS          0.6460    -1.2400    -2.0750 h1         1 4A4       0.077700
     42 HAR          2.1280    -2.8220    -0.9820 h1         1 4A4       0.040700
     43 HAT          3.0500    -0.8400    -1.8370 h1         1 4A4       0.052700
     44 HAX          0.4710    -3.8080     0.3650 ho         1 4A4       0.423000
     45 HAQ          1.3870    -1.4170     1.6210 h1         1 4A4       0.078700
     46 HAW          2.7380    -3.0190     2.4610 ho         1 4A4       0.425000
     47 HAP          4.0360    -1.6130     0.1120 h2         1 4A4       0.028700
     48 HAV          4.7340    -0.3830     1.8100 ho         1 4A4       0.425000
     49 HAU1         1.6530     0.8700    -2.9630 h1         1 4A4       0.033700
     50 HAU2         1.6020     1.8070    -1.4650 h1         1 4A4       0.033700
     51 HAZ          3.3810     2.4520    -2.7510 ho         1 4A4       0.409000
@<TRIPOS>BOND
     1     1     2 1   
     2     1    27 1   
     3     1    28 1   
     4     1    29 1   
     5     2     3 2   
     6     2     4 1   
     7     4     5 1   
     8     4    30 1   
     9     5     6 1   
    10     5    14 1   
    11     5    31 1   
    12     6     7 1   
    13     6     8 1   
    14     6    32 1   
    15     7    34 1   
    16     8     9 1   
    17     8    10 1   
    18     8    35 1   
    19     9    36 1   
    20    10    11 1   
    21    10    13 1   
    22    10    37 1   
    23    11    12 1   
    24    11    38 1   
    25    11    39 1   
    26    12    40 1   
    27    13    14 1   
    28    14    15 1   
    29    14    33 1   
    30    15    16 1   
    31    16    17 1   
    32    16    24 1   
    33    16    41 1   
    34    17    18 1   
    35    17    19 1   
    36    17    42 1   
    37    18    44 1   
    38    19    20 1   
    39    19    21 1   
    40    19    45 1   
    41    20    46 1   
    42    21    22 1   
    43    21    23 1   
    44    21    47 1   
    45    22    48 1   
    46    23    24 1   
    47    24    25 1   
    48    24    43 1   
    49    25    26 1   
    50    25    49 1   
    51    25    50 1   
    52    26    51 1   
@<TRIPOS>SUBSTRUCTURE
     1 4A4         1 TEMP              0 ****  ****    0 ROOT
