@<TRIPOS>MOLECULE
4A4
   51    52     1     0     0
SMALL
No Charge or Current Charge


@<TRIPOS>ATOM
      1 CAN          1.1750     4.2510     1.3270 c3         1 4A4      -0.181100
      2 CAM          0.1980     3.5340     0.4070 c          1 4A4       0.609100
      3 OAO          0.0350     3.8510    -0.7610 o          1 4A4      -0.605100
      4 N2          -0.4870     2.4950     0.9830 ns         1 4A4      -0.500900
      5 C2          -1.4960     1.6510     0.2980 c6         1 4A4       0.094700
      6 C3          -2.3490     0.8440     1.3210 c6         1 4A4       0.157300
      7 O3          -3.0150     1.7130     2.2520 oh         1 4A4      -0.645000
      8 C4          -3.4020    -0.0340     0.5850 c6         1 4A4       0.101300
      9 O4          -4.1740    -0.7820     1.5520 oh         1 4A4      -0.722000
     10 C5          -2.6660    -0.9600    -0.4340 c6         1 4A4       0.143300
     11 C6          -3.6530    -1.8180    -1.2940 c3         1 4A4       0.169600
     12 O6          -2.9990    -2.6080    -2.3050 oh         1 4A4      -0.698000
     13 O5          -1.8620    -0.1550    -1.3390 os         1 4A4      -0.456000
     14 C1          -0.8430     0.6540    -0.7110 c6         1 4A4       0.378300
     15 O1           0.1170    -0.2020    -0.0470 os         1 4A4      -0.479000
     16 CAS          0.9600    -1.0400    -0.8930 c6         1 4A4       0.151300
     17 CAR          1.3540    -2.3570    -0.1400 c6         1 4A4       0.182300
     18 OAX          0.2260    -3.0710     0.3930 oh         1 4A4      -0.699000
     19 CAQ          2.3340    -2.0390     1.0230 c6         1 4A4       0.104300
     20 OAW          2.6880    -3.2510     1.7370 oh         1 4A4      -0.730000
     21 CAP          3.5830    -1.3120     0.4310 c6         1 4A4       0.367300
     22 OAV          4.4540    -0.8860     1.4560 oh         1 4A4      -0.706000
     23 OAY          3.1840    -0.1140    -0.2330 os         1 4A4      -0.470000
     24 CAT          2.2900    -0.3390    -1.3600 c6         1 4A4       0.150300
     25 CAU          2.1100     1.0130    -2.1210 c3         1 4A4       0.167600
     26 OAZ          3.3440     1.5190    -2.6670 oh         1 4A4      -0.713000
     27 HAN1         1.6990     5.0730     0.8270 hc         1 4A4       0.061367
     28 HAN2         0.6400     4.5940     2.2200 hc         1 4A4       0.061367
     29 HAN3         1.8760     3.5180     1.7420 hc         1 4A4       0.061367
     30 H2          -0.3010     2.3160     1.9620 hn         1 4A4       0.332500
     31 HA          -2.1670     2.3120    -0.2690 h1         1 4A4       0.103700
     32 H3          -1.6740     0.1700     1.8710 h1         1 4A4       0.058700
     33 H1          -0.3460     1.2470    -1.4890 h2         1 4A4       0.073700
     34 HB          -3.7210     1.1520     2.6470 ho         1 4A4       0.454000
     35 H4          -4.0670     0.6360     0.0160 h1         1 4A4       0.051700
     36 HC          -5.0350    -1.0190     1.1330 ho         1 4A4       0.509000
     37 H5          -2.0090    -1.6510     0.1130 h1         1 4A4       0.093700
     38 H61C        -4.2160    -2.4770    -0.6200 h1         1 4A4       0.021200
     39 H62C        -4.3770    -1.1380    -1.7640 h1         1 4A4       0.021200
     40 H6          -3.7070    -3.0530    -2.8260 ho         1 4A4       0.500000
     41 HAS          0.3860    -1.3330    -1.7850 h1         1 4A4       0.077700
     42 HAR          1.8820    -3.0050    -0.8570 h1         1 4A4       0.040700
     43 HAT          2.7950    -1.0220    -2.0590 h1         1 4A4       0.052700
     44 HAX          0.6180    -3.5960     1.1320 ho         1 4A4       0.522000
     45 HAQ          1.8360    -1.3330     1.7060 h1         1 4A4       0.078700
     46 HAW          3.4860    -3.0200     2.2730 ho         1 4A4       0.524000
     47 HAP          4.1170    -1.9690    -0.2730 h2         1 4A4       0.028700
     48 HAV          4.6400     0.0460     1.2040 ho         1 4A4       0.524000
     49 HAU1         1.3780     0.8610    -2.9270 h1         1 4A4       0.033700
     50 HAU2         1.6920     1.7450    -1.4190 h1         1 4A4       0.033700
     51 HAZ          3.1520     2.4130    -3.0350 ho         1 4A4       0.508000
@<TRIPOS>BOND
     1     1     2 1   
     2     1    27 1   
     3     1    28 1   
     4     1    29 1   
     5     2     3 2   
     6     2     4 1   
     7     4     5 1   
     8     4    30 1   
     9     5     6 1   
    10     5    14 1   
    11     5    31 1   
    12     6     7 1   
    13     6     8 1   
    14     6    32 1   
    15     7    34 1   
    16     8     9 1   
    17     8    10 1   
    18     8    35 1   
    19     9    36 1   
    20    10    11 1   
    21    10    13 1   
    22    10    37 1   
    23    11    12 1   
    24    11    38 1   
    25    11    39 1   
    26    12    40 1   
    27    13    14 1   
    28    14    15 1   
    29    14    33 1   
    30    15    16 1   
    31    16    17 1   
    32    16    24 1   
    33    16    41 1   
    34    17    18 1   
    35    17    19 1   
    36    17    42 1   
    37    18    44 1   
    38    19    20 1   
    39    19    21 1   
    40    19    45 1   
    41    20    46 1   
    42    21    22 1   
    43    21    23 1   
    44    21    47 1   
    45    22    48 1   
    46    23    24 1   
    47    24    25 1   
    48    24    43 1   
    49    25    26 1   
    50    25    49 1   
    51    25    50 1   
    52    26    51 1   
@<TRIPOS>SUBSTRUCTURE
     1 4A4         1 TEMP              0 ****  ****    0 ROOT
