@<TRIPOS>MOLECULE
4A5
   21    22     1     0     0
SMALL
bcc


@<TRIPOS>ATOM
      1 C5          -0.3150     1.3070     0.2230 cc         1 4A5      -0.094300
      2 C4           0.7810     0.4990     0.0220 cd         1 4A5      -0.240200
      3 C1           0.3530    -0.8080     0.3190 cd         1 4A5       0.352600
      4 C10         -3.5490     0.7560    -0.4390 c          1 4A5       0.928600
      5 C8           0.6940    -3.1490    -0.7030 cx         1 4A5      -0.127900
      6 C9           0.5530    -3.3360     0.7720 cx         1 4A5      -0.127900
      7 C6           1.1280    -2.0580     0.2420 cx         1 4A5      -0.141000
      8 N3          -0.9190    -0.7780     0.6760 nc         1 4A5      -0.516800
      9 N2          -1.2980     0.4950     0.6230 na         1 4A5       0.194400
     10 O12         -2.9660     0.5690    -1.5160 o          1 4A5      -0.811800
     11 O13         -4.7680     0.9080    -0.2320 o          1 4A5      -0.811800
     12 BR1          2.4770     1.0410    -0.5270 br         1 4A5      -0.114100
     13 H1          -0.4420     2.3720     0.1180 h4         1 4A5       0.174000
     14 H2           1.4650    -3.7000    -1.2250 hc         1 4A5       0.070700
     15 H3          -0.2050    -2.9730    -1.2800 hc         1 4A5       0.070700
     16 H4          -0.4420    -3.2960     1.1970 hc         1 4A5       0.070700
     17 H5           1.2280    -4.0180     1.2720 hc         1 4A5       0.070700
     18 H6           2.1990    -1.9280     0.3510 hc         1 4A5       0.074700
     19 H7          -2.7120     1.8710     1.2190 h1         1 4A5       0.048700
     20 H8          -3.0770     0.2040     1.6200 h1         1 4A5       0.048700
     21 C7          -2.6780     0.8490     0.8370 c3         1 4A5      -0.117700
@<TRIPOS>BOND
     1     1     2 2   
     2     1     9 1   
     3     1    13 1   
     4     2     3 1   
     5     2    12 1   
     6     3     7 1   
     7     3     8 2   
     8     4    10 1   
     9     4    11 1   
    10     4    21 1   
    11     5     6 1   
    12     5     7 1   
    13     5    14 1   
    14     5    15 1   
    15     6     7 1   
    16     6    16 1   
    17     6    17 1   
    18     7    18 1   
    19     8     9 1   
    20     9    21 1   
    21    19    21 1   
    22    20    21 1   
@<TRIPOS>SUBSTRUCTURE
     1 4A5         1 TEMP              0 ****  ****    0 ROOT
