@<TRIPOS>MOLECULE
4A5
   21    22     1     0     0
SMALL
No Charge or Current Charge


@<TRIPOS>ATOM
      1 C5          -0.5220     1.0060    -0.4400 cc         1 4A5      -0.127000
      2 C4           0.4840     0.0890    -0.5200 cd         1 4A5      -0.174900
      3 C1           0.1810    -0.9290     0.4130 cd         1 4A5       0.287300
      4 C10         -3.6190     1.3140    -0.1080 c          1 4A5       0.718000
      5 C8           1.3820    -3.0840    -0.4610 cx         1 4A5      -0.127900
      6 C9           0.4140    -3.5230     0.6090 cx         1 4A5      -0.127900
      7 C6           1.0180    -2.1340     0.6610 cx         1 4A5      -0.141000
      8 N3          -0.9380    -0.7110     1.0730 nc         1 4A5      -0.516800
      9 N2          -1.3740     0.4830     0.5310 na         1 4A5       0.215800
     10 O12         -3.6030     2.3860    -0.6970 o          1 4A5      -0.706500
     11 O13         -4.4060     0.4130    -0.3630 o          1 4A5      -0.706500
     12 Br1          1.9960     0.1920    -1.6480 br         1 4A5      -0.114100
     13 H1          -0.7020     1.9400    -0.9560 h4         1 4A5       0.156000
     14 H2           2.3800    -3.5160    -0.4540 hc         1 4A5       0.070700
     15 H3           0.9790    -2.8840    -1.4510 hc         1 4A5       0.070700
     16 H4          -0.6340    -3.6140     0.3350 hc         1 4A5       0.070700
     17 H5           0.7590    -4.2520     1.3380 hc         1 4A5       0.070700
     18 H6           1.7680    -1.9670     1.4300 hc         1 4A5       0.074700
     19 H7          -2.3730     2.0650     1.4740 h1         1 4A5       0.048700
     20 H8          -3.0690     0.4560     1.7830 h1         1 4A5       0.048700
     21 C7          -2.6110     1.0970     1.0190 c3         1 4A5      -0.088400
@<TRIPOS>BOND
     1     1     2 2   
     2     1     9 1   
     3     1    13 1   
     4     2     3 1   
     5     2    12 1   
     6     3     7 1   
     7     3     8 2   
     8     4    10 1   
     9     4    11 1   
    10     4    21 1   
    11     5     6 1   
    12     5     7 1   
    13     5    14 1   
    14     5    15 1   
    15     6     7 1   
    16     6    16 1   
    17     6    17 1   
    18     7    18 1   
    19     8     9 1   
    20     9    21 1   
    21    19    21 1   
    22    20    21 1   
@<TRIPOS>SUBSTRUCTURE
     1 4A5         1 TEMP              0 ****  ****    0 ROOT
