@<TRIPOS>MOLECULE
4A7
   46    48     1     0     0
SMALL
No Charge or Current Charge


@<TRIPOS>ATOM
      1 NAO         -0.5410    -2.3390     0.2000 nu         1 4A7      -0.852100
      2 CAS          0.6000    -1.5520     0.0350 ca         1 4A7       0.216000
      3 CAK          1.4520    -1.3640     1.1350 ca         1 4A7      -0.101000
      4 CAU          2.6090    -0.5690     1.0240 ca         1 4A7      -0.112300
      5 CAN          3.5490    -0.4210     2.2170 c6         1 4A7      -0.024100
      6 CAM          5.0110    -0.3550     1.7360 c6         1 4A7      -0.159400
      7 CAR          5.2000     0.6850     0.6270 c          1 4A7       0.569000
      8 OAD          6.2160     1.3700     0.5900 o          1 4A7      -0.540000
      9 NAY          4.1480     0.8240    -0.3130 n          1 4A7      -0.220400
     10 CAC          4.2860     1.8390    -1.3860 c3         1 4A7       0.079300
     11 CAW          2.9010     0.1050    -0.1830 ca         1 4A7      -0.017000
     12 CAI          2.0920    -0.1590    -1.3090 ca         1 4A7      -0.141000
     13 CAG          0.9410    -0.9580    -1.1960 ca         1 4A7      -0.061000
     14 CAB         -2.4730     0.0420     3.1880 c3         1 4A7       0.153900
     15 CAV         -2.5940     0.1550     0.7200 ca         1 4A7       0.261100
     16 CAL         -2.9250     1.5240     0.7450 ca         1 4A7      -0.263000
     17 CAT         -3.1100     2.2360    -0.4450 ca         1 4A7       0.235100
     18 OAP         -3.4310     3.5730    -0.3480 os         1 4A7      -0.336100
     19 CAA         -3.6390     4.3980    -1.5090 c3         1 4A7       0.146900
     20 CAH         -2.9620     1.5790    -1.6810 ca         1 4A7      -0.259000
     21 CAJ         -2.6330     0.2170    -1.7180 ca         1 4A7       0.070000
     22 CAX         -2.4530    -0.4960    -0.5180 ca         1 4A7      -0.385500
     23 SAZ         -2.0150    -2.2260    -0.5930 sy         1 4A7       1.160600
     24 OAE         -1.7380    -2.6280    -1.9740 o          1 4A7      -0.534000
     25 OAF         -2.9020    -3.0030     0.2760 o          1 4A7      -0.534000
     26 H1          -0.8020    -2.5440     1.1550 hn         1 4A7       0.490000
     27 H2           1.2210    -1.8470     2.0810 ha         1 4A7       0.114000
     28 H3           3.2960     0.4930     2.7720 hc         1 4A7       0.058200
     29 H4           3.4260    -1.2590     2.9180 hc         1 4A7       0.058200
     30 H5           5.7330    -0.1960     2.5470 hc         1 4A7       0.078200
     31 H6           5.2210    -1.3280     1.2730 hc         1 4A7       0.078200
     32 H7           4.9250     2.6700    -1.0620 h1         1 4A7       0.050367
     33 H8           4.7250     1.3740    -2.2770 h1         1 4A7       0.050367
     34 H9           3.3030     2.2550    -1.6420 h1         1 4A7       0.050367
     35 H10          2.3400     0.2550    -2.2830 ha         1 4A7       0.127000
     36 H11          0.3280    -1.1220    -2.0760 ha         1 4A7       0.148000
     37 H12         -1.7400     0.8520     3.2940 h1         1 4A7       0.051033
     38 H13         -3.4770     0.4480     3.3660 h1         1 4A7       0.051033
     39 H14         -2.2680    -0.7050     3.9650 h1         1 4A7       0.051033
     40 H15         -3.0410     2.0590     1.6810 ha         1 4A7       0.134000
     41 H16         -2.7350     4.4330    -2.1300 h1         1 4A7       0.048367
     42 H17         -4.4700     4.0160    -2.1150 h1         1 4A7       0.048367
     43 H18         -3.8840     5.4240    -1.2070 h1         1 4A7       0.048367
     44 H19         -3.0980     2.1060    -2.6210 ha         1 4A7       0.127000
     45 H20         -2.5220    -0.2760    -2.6840 ha         1 4A7       0.145000
     46 OAQ         -2.3870    -0.5590     1.8840 os         1 4A7      -0.358100
@<TRIPOS>BOND
     1     1     2 1   
     2     1    23 1   
     3     1    26 1   
     4     2     3 ar  
     5     2    13 ar  
     6     3     4 ar  
     7     3    27 1   
     8     4     5 1   
     9     4    11 ar  
    10     5     6 1   
    11     5    28 1   
    12     5    29 1   
    13     6     7 1   
    14     6    30 1   
    15     6    31 1   
    16     7     8 2   
    17     7     9 1   
    18     9    10 1   
    19     9    11 1   
    20    10    32 1   
    21    10    33 1   
    22    10    34 1   
    23    11    12 ar  
    24    12    13 ar  
    25    12    35 1   
    26    13    36 1   
    27    14    37 1   
    28    14    38 1   
    29    14    39 1   
    30    14    46 1   
    31    15    16 ar  
    32    15    22 ar  
    33    15    46 1   
    34    16    17 ar  
    35    16    40 1   
    36    17    18 1   
    37    17    20 ar  
    38    18    19 1   
    39    19    41 1   
    40    19    42 1   
    41    19    43 1   
    42    20    21 ar  
    43    20    44 1   
    44    21    22 ar  
    45    21    45 1   
    46    22    23 1   
    47    23    24 2   
    48    23    25 2   
@<TRIPOS>SUBSTRUCTURE
     1 4A7         1 TEMP              0 ****  ****    0 ROOT
