@<TRIPOS>MOLECULE
4A7
   46    48     1     0     0
SMALL
bcc


@<TRIPOS>ATOM
      1 NAO         -0.5250    -2.5510    -0.0150 nu         1 4A7      -0.658500
      2 CAS          0.6250    -1.7350    -0.1720 ca         1 4A7       0.077600
      3 CAK          1.0280    -0.8820     0.8510 ca         1 4A7      -0.119000
      4 CAU          2.1550    -0.0910     0.7220 ca         1 4A7      -0.112300
      5 CAN          2.6170     0.8380     1.7990 c6         1 4A7      -0.024100
      6 CAM          4.1350     0.8440     1.8250 c6         1 4A7      -0.159400
      7 CAR          4.7190     1.1630     0.4720 c          1 4A7       0.711500
      8 OAD          5.7550     1.7920     0.3450 o          1 4A7      -0.615500
      9 NAY          4.0260     0.6860    -0.6080 n          1 4A7      -0.380000
     10 CAC          4.5460     0.9230    -1.9430 c3         1 4A7       0.079300
     11 CAW          2.8970    -0.1380    -0.4630 ca         1 4A7       0.075600
     12 CAI          2.4930    -0.9910    -1.4860 ca         1 4A7      -0.159000
     13 CAG          1.3690    -1.7900    -1.3400 ca         1 4A7      -0.079000
     14 CAB         -2.6900    -0.6570     3.1360 c3         1 4A7       0.130700
     15 CAV         -2.4990    -0.0420     0.8480 ca         1 4A7       0.261100
     16 CAL         -2.7670     1.2890     1.1130 ca         1 4A7      -0.281000
     17 CAT         -2.7690     2.2270     0.0750 ca         1 4A7       0.235100
     18 OAP         -3.0440     3.4820     0.4370 os         1 4A7      -0.312900
     19 CAA         -3.0510     4.4960    -0.5550 c3         1 4A7       0.123700
     20 CAH         -2.4940     1.8330    -1.2340 ca         1 4A7      -0.277000
     21 CAJ         -2.2250     0.5000    -1.4900 ca         1 4A7       0.052000
     22 CAX         -2.2320    -0.4410    -0.4740 ca         1 4A7      -0.385500
     23 SAZ         -1.9050    -2.1280    -0.8520 sy         1 4A7       1.302200
     24 OAE         -1.5810    -2.1930    -2.2670 o          1 4A7      -0.604800
     25 OAF         -2.9540    -2.9860    -0.3310 o          1 4A7      -0.604800
     26 H1          -0.7450    -2.7750     0.9500 hn         1 4A7       0.434800
     27 H2           0.4550    -0.8350     1.7700 ha         1 4A7       0.132000
     28 H3           2.2450     1.8490     1.6030 hc         1 4A7       0.058200
     29 H4           2.2180     0.5390     2.7680 hc         1 4A7       0.058200
     30 H5           4.5230     1.5670     2.5410 hc         1 4A7       0.078200
     31 H6           4.5070    -0.1410     2.1260 hc         1 4A7       0.078200
     32 H7           5.2220     1.7710    -1.9240 h1         1 4A7       0.050367
     33 H8           5.0890     0.0580    -2.3270 h1         1 4A7       0.050367
     34 H9           3.7260     1.1510    -2.6220 h1         1 4A7       0.050367
     35 H10          3.0600    -1.0650    -2.4040 ha         1 4A7       0.145000
     36 H11          1.0930    -2.4680    -2.1350 ha         1 4A7       0.166000
     37 H12         -1.9640     0.0720     3.5010 h1         1 4A7       0.051033
     38 H13         -3.6980    -0.2640     3.2790 h1         1 4A7       0.051033
     39 H14         -2.5830    -1.5770     3.7030 h1         1 4A7       0.051033
     40 H15         -2.9770     1.6330     2.1170 ha         1 4A7       0.152000
     41 H16         -2.0750     4.5980    -1.0340 h1         1 4A7       0.048367
     42 H17         -3.8070     4.3070    -1.3200 h1         1 4A7       0.048367
     43 H18         -3.2900     5.4230    -0.0420 h1         1 4A7       0.048367
     44 H19         -2.4830     2.5360    -2.0540 ha         1 4A7       0.145000
     45 H20         -2.0080     0.1960    -2.5050 ha         1 4A7       0.163000
     46 OAQ         -2.4530    -0.9980     1.7790 os         1 4A7      -0.334900
@<TRIPOS>BOND
     1     1     2 1   
     2     1    23 1   
     3     1    26 1   
     4     2     3 ar  
     5     2    13 ar  
     6     3     4 ar  
     7     3    27 1   
     8     4     5 1   
     9     4    11 ar  
    10     5     6 1   
    11     5    28 1   
    12     5    29 1   
    13     6     7 1   
    14     6    30 1   
    15     6    31 1   
    16     7     8 2   
    17     7     9 1   
    18     9    10 1   
    19     9    11 1   
    20    10    32 1   
    21    10    33 1   
    22    10    34 1   
    23    11    12 ar  
    24    12    13 ar  
    25    12    35 1   
    26    13    36 1   
    27    14    37 1   
    28    14    38 1   
    29    14    39 1   
    30    14    46 1   
    31    15    16 ar  
    32    15    22 ar  
    33    15    46 1   
    34    16    17 ar  
    35    16    40 1   
    36    17    18 1   
    37    17    20 ar  
    38    18    19 1   
    39    19    41 1   
    40    19    42 1   
    41    19    43 1   
    42    20    21 ar  
    43    20    44 1   
    44    21    22 ar  
    45    21    45 1   
    46    22    23 1   
    47    23    24 2   
    48    23    25 2   
@<TRIPOS>SUBSTRUCTURE
     1 4A7         1 TEMP              0 ****  ****    0 ROOT
