@<TRIPOS>MOLECULE
4A8
   41    43     1     0     0
SMALL
No Charge or Current Charge


@<TRIPOS>ATOM
      1 CAA         -3.6420    -3.6600     2.9580 c3         1 4A8       0.144900
      2 OAO         -3.6000    -3.3200     1.5600 os         1 4A8      -0.335100
      3 CAQ         -3.2730    -2.0540     1.1200 ca         1 4A8       0.197100
      4 CAH         -3.2590    -1.8260    -0.2640 ca         1 4A8      -0.200000
      5 CAK         -2.9330    -0.5600    -0.7760 ca         1 4A8       0.026500
      6 CAG         -2.9590    -0.9990     2.0030 ca         1 4A8      -0.200000
      7 CAJ         -2.6330     0.2710     1.4980 ca         1 4A8       0.026500
      8 CAR         -2.6180     0.4910     0.1060 ca         1 4A8      -0.359500
      9 SAX         -2.1860     2.1010    -0.5560 sy         1 4A8       1.145600
     10 OAE         -3.0460     2.4050    -1.7010 o          1 4A8      -0.530500
     11 OAF         -1.9460     3.0610     0.5240 o          1 4A8      -0.530500
     12 NAN         -0.6880     1.8830    -1.2850 nu         1 4A8      -0.856100
     13 CAP          0.4880     1.3190    -0.7870 ca         1 4A8       0.219000
     14 CAM          1.4310     0.8270    -1.7140 ca         1 4A8      -0.133000
     15 CAU          2.6360     0.2990    -1.2320 ca         1 4A8       0.009600
     16 NAW          3.5940    -0.5100    -1.9040 n          1 4A8      -0.293000
     17 CAC          3.8620    -0.4620    -3.3520 c3         1 4A8       0.105300
     18 CAS          4.4430    -1.1310    -0.9770 c          1 4A8       0.597000
     19 OAD          5.4170    -1.8330    -1.2140 o          1 4A8      -0.560000
     20 NAV          3.9640    -0.7360     0.2800 n          1 4A8      -0.291000
     21 CAB          4.6850    -0.9720     1.5420 c3         1 4A8       0.104300
     22 CAT          2.8660     0.1550     0.1300 ca         1 4A8       0.010600
     23 CAL          1.9060     0.5430     1.0720 ca         1 4A8      -0.106000
     24 CAI          0.7370     1.1800     0.6040 ca         1 4A8      -0.068000
     25 H1          -4.3820    -3.0470     3.4870 h1         1 4A8       0.047700
     26 H2          -3.9210    -4.7140     3.0840 h1         1 4A8       0.047700
     27 H3          -2.6600    -3.5110     3.4250 h1         1 4A8       0.047700
     28 H4          -3.5000    -2.6380    -0.9440 ha         1 4A8       0.129500
     29 H5          -2.9220    -0.4020    -1.8540 ha         1 4A8       0.137500
     30 H6          -2.9630    -1.1430     3.0790 ha         1 4A8       0.129500
     31 H7          -2.3940     1.0750     2.1920 ha         1 4A8       0.137500
     32 H8          -0.8540     1.8400    -2.2810 hn         1 4A8       0.482000
     33 H9           1.2250     0.8440    -2.7800 ha         1 4A8       0.126000
     34 H10          3.5210     0.4960    -3.7630 h1         1 4A8       0.051700
     35 H11          4.9380    -0.5660    -3.5410 h1         1 4A8       0.051700
     36 H12          3.3270    -1.2800    -3.8510 h1         1 4A8       0.051700
     37 H13          5.7590    -1.0920     1.3480 h1         1 4A8       0.053700
     38 H14          4.5410    -0.1220     2.2190 h1         1 4A8       0.053700
     39 H15          4.3020    -1.8830     2.0190 h1         1 4A8       0.053700
     40 H16          2.0510     0.3530     2.1320 ha         1 4A8       0.131000
     41 H17          0.0080     1.5230     1.3310 ha         1 4A8       0.145000
@<TRIPOS>BOND
     1     1     2 1   
     2     1    25 1   
     3     1    26 1   
     4     1    27 1   
     5     2     3 1   
     6     3     4 ar  
     7     3     6 ar  
     8     4     5 ar  
     9     4    28 1   
    10     5     8 ar  
    11     5    29 1   
    12     6     7 ar  
    13     6    30 1   
    14     7     8 ar  
    15     7    31 1   
    16     8     9 1   
    17     9    10 2   
    18     9    11 2   
    19     9    12 1   
    20    12    13 1   
    21    12    32 1   
    22    13    14 ar  
    23    13    24 ar  
    24    14    15 ar  
    25    14    33 1   
    26    15    16 1   
    27    15    22 ar  
    28    16    17 1   
    29    16    18 1   
    30    17    34 1   
    31    17    35 1   
    32    17    36 1   
    33    18    19 2   
    34    18    20 1   
    35    20    21 1   
    36    20    22 1   
    37    21    37 1   
    38    21    38 1   
    39    21    39 1   
    40    22    23 ar  
    41    23    24 ar  
    42    23    40 1   
    43    24    41 1   
@<TRIPOS>SUBSTRUCTURE
     1 4A8         1 TEMP              0 ****  ****    0 ROOT
