@<TRIPOS>MOLECULE
4A8
   41    43     1     0     0
SMALL
bcc


@<TRIPOS>ATOM
      1 CAA         -2.4420    -4.3480     0.8610 c3         1 4A8       0.121700
      2 OAO         -2.9620    -3.4790    -0.1300 os         1 4A8      -0.311900
      3 CAQ         -2.7470    -2.1650    -0.0170 ca         1 4A8       0.197100
      4 CAH         -3.2850    -1.3630    -1.0310 ca         1 4A8      -0.218000
      5 CAK         -3.1130     0.0030    -1.0030 ca         1 4A8       0.008500
      6 CAG         -2.0370    -1.5730     1.0290 ca         1 4A8      -0.218000
      7 CAJ         -1.8660    -0.1980     1.0530 ca         1 4A8       0.008500
      8 CAR         -2.4040     0.5870     0.0450 ca         1 4A8      -0.359500
      9 SAX         -2.0790     2.3160     0.0120 sy         1 4A8       1.287200
     10 OAE         -3.1410     2.9860    -0.7190 o          1 4A8      -0.601300
     11 OAF         -1.7320     2.7420     1.3550 o          1 4A8      -0.601300
     12 NAN         -0.7060     2.5080    -0.9200 nu         1 4A8      -0.662500
     13 CAP          0.4730     1.8490    -0.4730 ca         1 4A8       0.080600
     14 CAM          0.7780     0.5690    -0.9430 ca         1 4A8      -0.151000
     15 CAU          1.9270    -0.0210    -0.4660 ca         1 4A8       0.009600
     16 NAW          2.4950    -1.2470    -0.7260 n          1 4A8      -0.360000
     17 CAC          1.9520    -2.2430    -1.6130 c3         1 4A8       0.105300
     18 CAS          3.6460    -1.3950     0.0130 c          1 4A8       0.806500
     19 OAD          4.3880    -2.3600     0.0240 o          1 4A8      -0.635500
     20 NAV          3.7920    -0.2320     0.7360 n          1 4A8      -0.358000
     21 CAB          4.8770     0.0430     1.6430 c3         1 4A8       0.104300
     22 CAT          2.7490     0.6220     0.4640 ca         1 4A8       0.010600
     23 CAL          2.4460     1.8850     0.9340 ca         1 4A8      -0.124000
     24 CAI          1.2930     2.4940     0.4470 ca         1 4A8      -0.086000
     25 H1          -2.8510    -4.1250     1.8490 h1         1 4A8       0.047700
     26 H2          -2.7400    -5.3530     0.5750 h1         1 4A8       0.047700
     27 H3          -1.3520    -4.3010     0.9070 h1         1 4A8       0.047700
     28 H4          -3.8380    -1.8250    -1.8380 ha         1 4A8       0.147500
     29 H5          -3.5350     0.6060    -1.7960 ha         1 4A8       0.155500
     30 H6          -1.6100    -2.1590     1.8300 ha         1 4A8       0.147500
     31 H7          -1.3130     0.2470     1.8680 ha         1 4A8       0.155500
     32 H8          -0.9140     2.3740    -1.9050 hn         1 4A8       0.426800
     33 H9           0.1310     0.0660    -1.6500 ha         1 4A8       0.144000
     34 H10          1.7940    -1.8230    -2.6060 h1         1 4A8       0.051700
     35 H11          2.6510    -3.0690    -1.6930 h1         1 4A8       0.051700
     36 H12          1.0020    -2.6240    -1.2380 h1         1 4A8       0.051700
     37 H13          5.5730    -0.7900     1.6270 h1         1 4A8       0.053700
     38 H14          5.4060     0.9470     1.3420 h1         1 4A8       0.053700
     39 H15          4.5070     0.1720     2.6600 h1         1 4A8       0.053700
     40 H16          3.0780     2.3930     1.6500 ha         1 4A8       0.149000
     41 H17          1.0320     3.4890     0.7820 ha         1 4A8       0.163000
@<TRIPOS>BOND
     1     1     2 1   
     2     1    25 1   
     3     1    26 1   
     4     1    27 1   
     5     2     3 1   
     6     3     4 ar  
     7     3     6 ar  
     8     4     5 ar  
     9     4    28 1   
    10     5     8 ar  
    11     5    29 1   
    12     6     7 ar  
    13     6    30 1   
    14     7     8 ar  
    15     7    31 1   
    16     8     9 1   
    17     9    10 2   
    18     9    11 2   
    19     9    12 1   
    20    12    13 1   
    21    12    32 1   
    22    13    14 ar  
    23    13    24 ar  
    24    14    15 ar  
    25    14    33 1   
    26    15    16 1   
    27    15    22 ar  
    28    16    17 1   
    29    16    18 1   
    30    17    34 1   
    31    17    35 1   
    32    17    36 1   
    33    18    19 2   
    34    18    20 1   
    35    20    21 1   
    36    20    22 1   
    37    21    37 1   
    38    21    38 1   
    39    21    39 1   
    40    22    23 ar  
    41    23    24 ar  
    42    23    40 1   
    43    24    41 1   
@<TRIPOS>SUBSTRUCTURE
     1 4A8         1 TEMP              0 ****  ****    0 ROOT
