@<TRIPOS>MOLECULE
4A9
   73    77     1     0     0
SMALL
bcc


@<TRIPOS>ATOM
      1 O2           4.9440    -0.5270     0.4230 o          1 4A9      -0.577100
      2 C7           6.0660    -0.0880     0.2460 c          1 4A9       0.690700
      3 C8           7.2680    -0.9630     0.4190 ca         1 4A9      -0.161600
      4 C14          8.5170    -0.4730     0.7960 ca         1 4A9      -0.077000
      5 C13          9.5820    -1.3420     0.9730 ca         1 4A9      -0.142000
      6 C12          9.4170    -2.7040     0.7720 ca         1 4A9      -0.056000
      7 C10          8.1710    -3.1950     0.4030 ca         1 4A9      -0.206300
      8 C11          7.9440    -4.6590     0.1840 c3         1 4A9       0.723200
      9 F3           7.0270    -5.1440     1.0330 f          1 4A9      -0.232300
     10 F2           7.4900    -4.9100    -1.0510 f          1 4A9      -0.232300
     11 F1           9.0540    -5.3820     0.3490 f          1 4A9      -0.232300
     12 C9           7.0980    -2.3300     0.2370 ca         1 4A9      -0.027000
     13 N2           6.3370     1.1880    -0.1230 ns         1 4A9      -0.466100
     14 C6           5.4610     2.2630    -0.3010 ca         1 4A9       0.097600
     15 C5           6.0380     3.4800    -0.6720 ca         1 4A9      -0.213000
     16 C4           5.2330     4.5850    -0.8630 ca         1 4A9      -0.075000
     17 C3           3.8560     4.5270    -0.6940 ca         1 4A9      -0.173000
     18 C15          4.0840     2.1840    -0.1270 ca         1 4A9      -0.213000
     19 C2           3.2830     3.3140    -0.3200 ca         1 4A9       0.104600
     20 N1           1.9110     3.1130    -0.1370 ns         1 4A9      -0.470100
     21 C1           0.9110     4.0340    -0.1020 c          1 4A9       0.733700
     22 O1           1.0850     5.2370    -0.1960 o          1 4A9      -0.577100
     23 C16         -0.4450     3.4930     0.0630 cc         1 4A9      -0.260000
     24 C17         -1.5520     4.2410     0.3350 cd         1 4A9       0.456200
     25 N3          -2.7230     3.5780     0.4780 nd         1 4A9      -0.664000
     26 C18         -2.5550     2.3030     0.3060 cc         1 4A9       0.744300
     27 S           -0.9190     1.8290    -0.0620 ss         1 4A9      -0.255300
     28 N4          -3.5000     1.3300     0.3850 nu         1 4A9      -0.844600
     29 C19         -4.8770     1.4600     0.3140 ca         1 4A9       0.729200
     30 C29         -5.6410     0.3430     0.6070 ca         1 4A9      -0.512600
     31 C22         -7.0330     0.4880     0.4910 ca         1 4A9       0.759200
     32 N6          -7.5490     1.6800     0.1430 nb         1 4A9      -0.816000
     33 C20         -6.7190     2.6730    -0.1070 ca         1 4A9       0.738300
     34 C21         -7.3170     3.9790    -0.5280 c3         1 4A9      -0.135400
     35 N5          -5.3910     2.6270    -0.0490 nb         1 4A9      -0.757000
     36 N7          -7.9020    -0.5160     0.7240 nh         1 4A9      -0.783300
     37 C28         -7.5200    -1.8700     1.0650 c6         1 4A9       0.224300
     38 C27         -8.1440    -2.8570     0.0920 c6         1 4A9       0.144300
     39 N8          -9.5850    -2.7120     0.0620 n3         1 4A9      -0.702600
     40 C24         -9.9390    -1.3570    -0.3160 c6         1 4A9       0.144300
     41 C23         -9.3410    -0.3490     0.6490 c6         1 4A9       0.224300
     42 C25        -10.2310    -3.6820    -0.8010 c3         1 4A9       0.168800
     43 C26        -10.1530    -5.1110    -0.3060 c3         1 4A9       0.142400
     44 O3         -10.7730    -5.2070     0.9560 oh         1 4A9      -0.579800
     45 H10          8.6740     0.5810     0.9830 ha         1 4A9       0.137000
     46 H9          10.5450    -0.9560     1.2760 ha         1 4A9       0.145000
     47 H8          10.2600    -3.3650     0.9120 ha         1 4A9       0.154000
     48 H7           6.1230    -2.7080    -0.0440 ha         1 4A9       0.169000
     49 H6           7.2980     1.4040    -0.3350 hn         1 4A9       0.320500
     50 H5           7.1100     3.5580    -0.8070 ha         1 4A9       0.128000
     51 H4           5.6850     5.5240    -1.1540 ha         1 4A9       0.134000
     52 H3           3.2590     5.4090    -0.8550 ha         1 4A9       0.170000
     53 H11          3.6200     1.2530     0.1580 ha         1 4A9       0.163000
     54 H2           1.6650     2.1560     0.0670 hn         1 4A9       0.322500
     55 H12         -1.5330     5.3150     0.4580 h4         1 4A9       0.062100
     56 H13         -3.1630     0.3860     0.4950 hn         1 4A9       0.455800
     57 H30         -5.1640    -0.5760     0.9120 ha         1 4A9       0.144000
     58 H15         -6.8300     4.8100    -0.0210 hc         1 4A9       0.060367
     59 H16         -7.1710     4.1250    -1.6010 hc         1 4A9       0.060367
     60 H14         -8.3850     4.0080    -0.3260 hc         1 4A9       0.060367
     61 H29         -6.4410    -1.9930     1.0480 h1         1 4A9       0.065200
     62 H28         -7.8580    -2.0950     2.0820 h1         1 4A9       0.065200
     63 H27         -7.6970    -2.7070    -0.9070 h1         1 4A9       0.040450
     64 H26         -7.8750    -3.8640     0.4160 h1         1 4A9       0.040450
     65 H19         -9.6050    -1.1160    -1.3400 h1         1 4A9       0.040450
     66 H20        -11.0260    -1.2530    -0.2980 h1         1 4A9       0.040450
     67 H18         -9.7680    -0.5010     1.6460 h1         1 4A9       0.065200
     68 H17         -9.5770     0.6610     0.3310 h1         1 4A9       0.065200
     69 H22        -11.2860    -3.4050    -0.8880 h1         1 4A9       0.039200
     70 H21         -9.8210    -3.6620    -1.8250 h1         1 4A9       0.039200
     71 H23        -10.6510    -5.7400    -1.0550 h1         1 4A9       0.015200
     72 H24         -9.1100    -5.4500    -0.2680 h1         1 4A9       0.015200
     73 H25        -10.7550    -6.1290     1.2260 ho         1 4A9       0.398000
@<TRIPOS>BOND
     1     1     2 2   
     2     2     3 1   
     3     2    13 1   
     4     3     4 ar  
     5     3    12 ar  
     6     4     5 ar  
     7     4    45 1   
     8     5     6 ar  
     9     5    46 1   
    10     6     7 ar  
    11     6    47 1   
    12     7     8 1   
    13     7    12 ar  
    14     8     9 1   
    15     8    10 1   
    16     8    11 1   
    17    12    48 1   
    18    13    14 1   
    19    13    49 1   
    20    14    15 ar  
    21    14    18 ar  
    22    15    16 ar  
    23    15    50 1   
    24    16    17 ar  
    25    16    51 1   
    26    17    19 ar  
    27    17    52 1   
    28    18    19 ar  
    29    18    53 1   
    30    19    20 1   
    31    20    21 1   
    32    20    54 1   
    33    21    22 2   
    34    21    23 1   
    35    23    24 2   
    36    23    27 1   
    37    24    25 1   
    38    24    55 1   
    39    25    26 2   
    40    26    27 1   
    41    26    28 1   
    42    28    29 1   
    43    28    56 1   
    44    29    30 ar  
    45    29    35 ar  
    46    30    31 ar  
    47    30    57 1   
    48    31    32 ar  
    49    31    36 1   
    50    32    33 ar  
    51    33    34 1   
    52    33    35 ar  
    53    34    58 1   
    54    34    59 1   
    55    34    60 1   
    56    36    37 1   
    57    36    41 1   
    58    37    38 1   
    59    37    61 1   
    60    37    62 1   
    61    38    39 1   
    62    38    63 1   
    63    38    64 1   
    64    39    40 1   
    65    39    42 1   
    66    40    41 1   
    67    40    65 1   
    68    40    66 1   
    69    41    67 1   
    70    41    68 1   
    71    42    43 1   
    72    42    69 1   
    73    42    70 1   
    74    43    44 1   
    75    43    71 1   
    76    43    72 1   
    77    44    73 1   
@<TRIPOS>SUBSTRUCTURE
     1 4A9         1 TEMP              0 ****  ****    0 ROOT
