@<TRIPOS>MOLECULE
4A9
   73    77     1     0     0
SMALL
No Charge or Current Charge


@<TRIPOS>ATOM
      1 O2           4.7970    -0.5810     0.4040 o          1 4A9      -0.577100
      2 C7           5.9520    -0.1780     0.3140 c          1 4A9       0.623700
      3 C8           7.1210    -1.1450     0.3620 ca         1 4A9      -0.161600
      4 C14          8.4660    -0.7110     0.2610 ca         1 4A9      -0.059000
      5 C13          9.5170    -1.6410     0.3040 ca         1 4A9      -0.124000
      6 C12          9.2520    -3.0100     0.4520 ca         1 4A9      -0.038000
      7 C10          7.9220    -3.4660     0.5640 ca         1 4A9      -0.206300
      8 C11          7.6120    -4.9590     0.7170 c3         1 4A9       0.359300
      9 F3           6.5810    -5.1790     1.5650 f          1 4A9      -0.111000
     10 F2           7.2720    -5.5130    -0.4690 f          1 4A9      -0.111000
     11 F1           8.6620    -5.6650     1.1960 f          1 4A9      -0.111000
     12 C9           6.8670    -2.5290     0.5110 ca         1 4A9      -0.009000
     13 N2           6.2840     1.1650     0.1680 ns         1 4A9      -0.140000
     14 C6           5.5000     2.3480     0.0720 ca         1 4A9       0.005000
     15 C5           6.1880     3.5710    -0.0020 ca         1 4A9      -0.195000
     16 C4           5.4860     4.7820    -0.1000 ca         1 4A9      -0.057000
     17 C3           4.0830     4.7820    -0.1270 ca         1 4A9      -0.155000
     18 C15          4.0880     2.3580     0.0410 ca         1 4A9      -0.195000
     19 C2           3.3710     3.5660    -0.0570 ca         1 4A9       0.012000
     20 N1           1.9520     3.4840    -0.0810 ns         1 4A9      -0.144000
     21 C1           0.9580     4.4470    -0.1700 c          1 4A9       0.666700
     22 O1           1.1580     5.6510    -0.2510 o          1 4A9      -0.577100
     23 C16         -0.3950     3.8700    -0.1570 cc         1 4A9      -0.339600
     24 C17         -1.5250     4.6450    -0.2360 cd         1 4A9       0.390900
     25 N3          -2.7160     3.9310    -0.2100 nd         1 4A9      -0.664000
     26 C18         -2.4650     2.6420    -0.1130 cc         1 4A9       0.744300
     27 S           -0.7850     2.1730    -0.0450 ss         1 4A9      -0.110400
     28 N4          -3.4700     1.7190    -0.0680 nu         1 4A9      -0.899800
     29 C19         -4.8550     1.7670    -0.1000 ca         1 4A9       0.400900
     30 C29         -5.5660     0.5700    -0.0290 ca         1 4A9      -0.364000
     31 C22         -6.9680     0.6380    -0.0590 ca         1 4A9       0.430900
     32 N6          -7.5980     1.8240    -0.1510 nb         1 4A9      -0.290000
     33 C20         -6.8250     2.9240    -0.2130 ca         1 4A9       0.212300
     34 C21         -7.5430     4.2570    -0.3240 c3         1 4A9      -0.135400
     35 N5          -5.4800     2.9520    -0.1940 nb         1 4A9      -0.231000
     36 N7          -7.7860    -0.5140     0.0010 nh         1 4A9      -0.783300
     37 C28         -7.2060    -1.8940    -0.1100 c6         1 4A9       0.224300
     38 C27         -8.2520    -2.9690    -0.5510 c6         1 4A9       0.144300
     39 N8          -9.4910    -2.9640     0.2870 n3         1 4A9      -0.702600
     40 C24        -10.0880    -1.5950     0.2710 c6         1 4A9       0.144300
     41 C23         -9.0950    -0.4860     0.7430 c6         1 4A9       0.224300
     42 C25        -10.4810    -4.0140    -0.0970 c3         1 4A9       0.168800
     43 C26        -10.0140    -5.4970     0.0330 c3         1 4A9       0.165600
     44 O3          -9.6910    -5.8390     1.3930 oh         1 4A9      -0.642000
     45 H10          8.7180     0.3400     0.1440 ha         1 4A9       0.119000
     46 H9          10.5460    -1.2970     0.2210 ha         1 4A9       0.127000
     47 H8          10.0850    -3.7100     0.4760 ha         1 4A9       0.136000
     48 H7           5.8400    -2.8830     0.5840 ha         1 4A9       0.151000
     49 H6           7.2770     1.3390     0.1190 hn         1 4A9       0.154000
     50 H5           7.2750     3.5870     0.0180 ha         1 4A9       0.110000
     51 H4           6.0300     5.7230    -0.1550 ha         1 4A9       0.116000
     52 H3           3.5720     5.7370    -0.2030 ha         1 4A9       0.152000
     53 H11          3.5250     1.4320     0.0890 ha         1 4A9       0.145000
     54 H2           1.5970     2.5390    -0.0210 hn         1 4A9       0.156000
     55 H12         -1.5530     5.7260    -0.3130 h4         1 4A9       0.062100
     56 H13         -3.0960     0.7800     0.0060 hn         1 4A9       0.511000
     57 H30         -5.0430    -0.3750     0.0590 ha         1 4A9       0.126000
     58 H15         -6.8880     5.0940    -0.0510 hc         1 4A9       0.060367
     59 H16         -7.8910     4.4260    -1.3490 hc         1 4A9       0.060367
     60 H14         -8.4160     4.2930     0.3380 hc         1 4A9       0.060367
     61 H29         -6.3910    -1.9120    -0.8480 h1         1 4A9       0.065200
     62 H28         -6.7790    -2.1960     0.8570 h1         1 4A9       0.065200
     63 H27         -8.5120    -2.7870    -1.6040 h1         1 4A9       0.040450
     64 H26         -7.7600    -3.9510    -0.5090 h1         1 4A9       0.040450
     65 H19        -10.4270    -1.3450    -0.7450 h1         1 4A9       0.040450
     66 H20        -10.9760    -1.5610     0.9190 h1         1 4A9       0.040450
     67 H18         -8.9100    -0.6190     1.8190 h1         1 4A9       0.065200
     68 H17         -9.6030     0.4820     0.6240 h1         1 4A9       0.065200
     69 H22        -11.3850    -3.9030     0.5170 h1         1 4A9       0.039200
     70 H21        -10.7930    -3.8550    -1.1390 h1         1 4A9       0.039200
     71 H23        -10.8240    -6.1450    -0.3280 h1         1 4A9       0.015200
     72 H24         -9.1490    -5.6700    -0.6190 h1         1 4A9       0.015200
     73 H25         -9.3670    -6.7660     1.3840 ho         1 4A9       0.437000
@<TRIPOS>BOND
     1     1     2 2   
     2     2     3 1   
     3     2    13 1   
     4     3     4 ar  
     5     3    12 ar  
     6     4     5 ar  
     7     4    45 1   
     8     5     6 ar  
     9     5    46 1   
    10     6     7 ar  
    11     6    47 1   
    12     7     8 1   
    13     7    12 ar  
    14     8     9 1   
    15     8    10 1   
    16     8    11 1   
    17    12    48 1   
    18    13    14 1   
    19    13    49 1   
    20    14    15 ar  
    21    14    18 ar  
    22    15    16 ar  
    23    15    50 1   
    24    16    17 ar  
    25    16    51 1   
    26    17    19 ar  
    27    17    52 1   
    28    18    19 ar  
    29    18    53 1   
    30    19    20 1   
    31    20    21 1   
    32    20    54 1   
    33    21    22 2   
    34    21    23 1   
    35    23    24 2   
    36    23    27 1   
    37    24    25 1   
    38    24    55 1   
    39    25    26 2   
    40    26    27 1   
    41    26    28 1   
    42    28    29 1   
    43    28    56 1   
    44    29    30 ar  
    45    29    35 ar  
    46    30    31 ar  
    47    30    57 1   
    48    31    32 ar  
    49    31    36 1   
    50    32    33 ar  
    51    33    34 1   
    52    33    35 ar  
    53    34    58 1   
    54    34    59 1   
    55    34    60 1   
    56    36    37 1   
    57    36    41 1   
    58    37    38 1   
    59    37    61 1   
    60    37    62 1   
    61    38    39 1   
    62    38    63 1   
    63    38    64 1   
    64    39    40 1   
    65    39    42 1   
    66    40    41 1   
    67    40    65 1   
    68    40    66 1   
    69    41    67 1   
    70    41    68 1   
    71    42    43 1   
    72    42    69 1   
    73    42    70 1   
    74    43    44 1   
    75    43    71 1   
    76    43    72 1   
    77    44    73 1   
@<TRIPOS>SUBSTRUCTURE
     1 4A9         1 TEMP              0 ****  ****    0 ROOT
