@<TRIPOS>MOLECULE
4AA
   17    17     1     0     0
SMALL
abcg2


@<TRIPOS>ATOM
      1 OAB         -1.4900    -0.1880    -3.3080 o          1 4AA      -0.721500
      2 CAH         -0.3740    -0.0650    -2.7740 c          1 4AA       0.722600
      3 OAC          0.7150     0.0540    -3.3880 o          1 4AA      -0.721500
      4 CAL         -0.3360    -0.0380    -1.2540 ca         1 4AA      -0.188600
      5 CAG         -1.5500    -0.0080    -0.5610 ca         1 4AA      -0.066000
      6 CAF         -1.6110     0.0630     0.8140 ca         1 4AA      -0.163000
      7 CAJ         -0.4150     0.0990     1.5220 ca         1 4AA       0.065000
      8 CLAE        -0.4430     0.1900     3.2600 cl         1 4AA      -0.276000
      9 CAK          0.8110     0.0570     0.8870 ca         1 4AA       0.025100
     10 OAD          1.9980     0.0780     1.5310 oh         1 4AA      -0.553100
     11 CAI          0.8670    -0.0110    -0.5240 ca         1 4AA       0.318000
     12 NAA          2.1000    -0.1050    -1.1170 nv         1 4AA      -1.089000
     13 HAG         -2.4670    -0.0340    -1.1320 ha         1 4AA       0.134000
     14 HAF         -2.5580     0.0960     1.3370 ha         1 4AA       0.105000
     15 HAD          1.8710     0.1580     2.4850 ho         1 4AA       0.454000
     16 HAA1         2.8690     0.3290    -0.6350 hn         1 4AA       0.476500
     17 HAA2         2.0490     0.0600    -2.1160 hn         1 4AA       0.476500
@<TRIPOS>BOND
     1     1     2 1   
     2     2     3 1   
     3     2     4 1   
     4     4     5 ar  
     5     4    11 ar  
     6     5     6 ar  
     7     5    13 1   
     8     6     7 ar  
     9     6    14 1   
    10     7     8 1   
    11     7     9 ar  
    12     9    10 1   
    13     9    11 ar  
    14    10    15 1   
    15    11    12 1   
    16    12    16 1   
    17    12    17 1   
@<TRIPOS>SUBSTRUCTURE
     1 4AA         1 TEMP              0 ****  ****    0 ROOT
