@<TRIPOS>MOLECULE
4AA
   17    17     1     0     0
SMALL
No Charge or Current Charge


@<TRIPOS>ATOM
      1 OAB         -1.2530    -0.7390    -3.3110 o          1 4AA      -0.721500
      2 CAH         -0.3620    -0.0890    -2.7840 c          1 4AA       0.722600
      3 OAC          0.4650     0.5490    -3.4220 o          1 4AA      -0.721500
      4 CAL         -0.3410    -0.0180    -1.2770 ca         1 4AA      -0.188600
      5 CAG         -1.5670     0.0510    -0.5770 ca         1 4AA      -0.066000
      6 CAF         -1.5900     0.1180     0.8250 ca         1 4AA      -0.163000
      7 CAJ         -0.3910     0.1170     1.5480 ca         1 4AA       0.065000
      8 ClAE        -0.4460     0.2080     3.3090 cl         1 4AA      -0.276000
      9 CAK          0.8450     0.0430     0.8760 ca         1 4AA       0.025100
     10 OAD          2.0120     0.0480     1.6120 oh         1 4AA      -0.553100
     11 CAI          0.8690    -0.0310    -0.5450 ca         1 4AA       0.318000
     12 NAA          2.0800    -0.1150    -1.1920 nv         1 4AA      -1.089000
     13 HAG         -2.5080     0.0580    -1.1240 ha         1 4AA       0.134000
     14 HAF         -2.5410     0.1740     1.3490 ha         1 4AA       0.105000
     15 HAD          1.7660     0.1000     2.5630 ho         1 4AA       0.454000
     16 HAA1         2.9110     0.1030    -0.6460 hn         1 4AA       0.476500
     17 HAA2         2.0880     0.1560    -2.1780 hn         1 4AA       0.476500
@<TRIPOS>BOND
     1     1     2 1   
     2     2     3 1   
     3     2     4 1   
     4     4     5 ar  
     5     4    11 ar  
     6     5     6 ar  
     7     5    13 1   
     8     6     7 ar  
     9     6    14 1   
    10     7     8 1   
    11     7     9 ar  
    12     9    10 1   
    13     9    11 ar  
    14    10    15 1   
    15    11    12 1   
    16    12    16 1   
    17    12    17 1   
@<TRIPOS>SUBSTRUCTURE
     1 4AA         1 TEMP              0 ****  ****    0 ROOT
