@<TRIPOS>MOLECULE
4AB
   33    34     1     0     0
SMALL
abcg2


@<TRIPOS>ATOM
      1 N1          -1.3710     0.0320    -2.6570 nb         1 4AB      -0.317000
      2 C2          -0.4690    -0.1350    -3.6170 ca         1 4AB       0.400900
      3 N2          -0.9420    -0.2630    -4.8940 nv         1 4AB      -1.034900
      4 N3           0.8460    -0.2190    -3.4540 nb         1 4AB      -0.319000
      5 C4           1.3000    -0.1790    -2.1980 ca         1 4AB       0.380900
      6 NH4          2.6510    -0.2810    -2.0150 nv         1 4AB      -1.040900
      7 C4A          0.4470    -0.0830    -1.1010 ca         1 4AB      -0.025000
      8 C8A         -0.9060     0.0600    -1.4060 ca         1 4AB       0.389900
      9 N5           0.9280    -0.0580     0.2270 nu         1 4AB      -0.865200
     10 N8          -1.7960     0.2340    -0.3950 nu         1 4AB      -0.920100
     11 C6          -0.0930    -0.2530     1.2490 c6         1 4AB       0.144500
     12 C7          -1.3040     0.6090     0.9090 c6         1 4AB       0.221800
     13 C9           0.5200     0.0540     2.6220 c3         1 4AB       0.141300
     14 O9           1.0000     1.3730     2.7190 oh         1 4AB      -0.634000
     15 C10         -0.4120    -0.2830     3.7980 c3         1 4AB       0.133300
     16 C11          0.2820    -0.0880     5.1390 c3         1 4AB      -0.124100
     17 O10         -0.9430    -1.5870     3.6780 oh         1 4AB      -0.651000
     18 H22         -0.2820    -0.0720    -5.6290 hn         1 4AB       0.473500
     19 H21         -1.8650     0.1010    -5.0630 hn         1 4AB       0.473500
     20 HH41         3.2040    -0.1150    -2.8410 hn         1 4AB       0.468500
     21 HH42         3.0280     0.1680    -1.1940 hn         1 4AB       0.468500
     22 H5           1.6610    -0.7460     0.3540 hn         1 4AB       0.428000
     23 H8          -2.7200     0.5380    -0.6580 hn         1 4AB       0.497000
     24 H6          -0.4390    -1.2940     1.2630 h1         1 4AB       0.056700
     25 H71         -2.0980     0.4410     1.6360 h1         1 4AB       0.047200
     26 H72         -1.0400     1.6740     0.9460 h1         1 4AB       0.047200
     27 H9           1.4090    -0.5870     2.7150 h1         1 4AB       0.069700
     28 H9O1         0.2530     1.9780     2.7780 ho         1 4AB       0.438000
     29 H10         -1.2810     0.3850     3.7610 h1         1 4AB       0.066700
     30 H113        -0.4020    -0.3220     5.9560 hc         1 4AB       0.047367
     31 H112         1.1540    -0.7410     5.2270 hc         1 4AB       0.047367
     32 H111         0.6180     0.9380     5.2720 hc         1 4AB       0.047367
     33 H1O1        -0.2200    -2.2180     3.7690 ho         1 4AB       0.442000
@<TRIPOS>BOND
     1     1     2 ar  
     2     1     8 ar  
     3     2     3 1   
     4     2     4 ar  
     5     3    18 1   
     6     3    19 1   
     7     4     5 ar  
     8     5     6 1   
     9     5     7 ar  
    10     6    20 1   
    11     6    21 1   
    12     7     8 ar  
    13     7     9 1   
    14     8    10 1   
    15     9    11 1   
    16     9    22 1   
    17    10    12 1   
    18    10    23 1   
    19    11    12 1   
    20    11    13 1   
    21    11    24 1   
    22    12    25 1   
    23    12    26 1   
    24    13    14 1   
    25    13    15 1   
    26    13    27 1   
    27    14    28 1   
    28    15    16 1   
    29    15    17 1   
    30    15    29 1   
    31    16    30 1   
    32    16    31 1   
    33    16    32 1   
    34    17    33 1   
@<TRIPOS>SUBSTRUCTURE
     1 4AB         1 TEMP              0 ****  ****    0 ROOT
