@<TRIPOS>MOLECULE
4AB
   33    34     1     0     0
SMALL
No Charge or Current Charge


@<TRIPOS>ATOM
      1 N1          -1.4050     0.1230    -2.6890 nb         1 4AB      -0.317000
      2 C2          -0.4790     0.1270    -3.6540 ca         1 4AB       0.400900
      3 N2          -0.9430     0.2560    -4.9170 nv         1 4AB      -1.034900
      4 N3           0.8490     0.0240    -3.5270 nb         1 4AB      -0.319000
      5 C4           1.3110    -0.1040    -2.2760 ca         1 4AB       0.380900
      6 NH4          2.6740    -0.1860    -2.1840 nv         1 4AB      -1.040900
      7 C4A          0.4520    -0.1280    -1.1450 ca         1 4AB      -0.025000
      8 C8A         -0.9350    -0.0020    -1.4410 ca         1 4AB       0.389900
      9 N5           0.9020    -0.2860     0.2060 nu         1 4AB      -0.865200
     10 N8          -1.8830    -0.0310    -0.4200 nu         1 4AB      -0.920100
     11 C6          -0.0920    -0.5390     1.3060 c6         1 4AB       0.144500
     12 C7          -1.4700     0.1720     0.9930 c6         1 4AB       0.221800
     13 C9           0.5180    -0.0930     2.6810 c3         1 4AB       0.141300
     14 O9           1.0680     1.2270     2.5370 oh         1 4AB      -0.634000
     15 C10         -0.4540    -0.1590     3.9060 c3         1 4AB       0.133300
     16 C11          0.2260     0.1910     5.2480 c3         1 4AB      -0.124100
     17 O10         -1.0240    -1.4710     4.0240 oh         1 4AB      -0.651000
     18 H22         -0.2800     0.4750    -5.6560 hn         1 4AB       0.473500
     19 H21         -1.9070     0.5470    -5.0560 hn         1 4AB       0.473500
     20 HH41         3.2140     0.0300    -3.0170 hn         1 4AB       0.468500
     21 HH42         3.1060     0.0540    -1.2970 hn         1 4AB       0.468500
     22 H5           1.8420    -0.6730     0.3180 hn         1 4AB       0.428000
     23 H8          -2.8410     0.1860    -0.7000 hn         1 4AB       0.497000
     24 H6          -0.2960    -1.6190     1.3590 h1         1 4AB       0.056700
     25 H71         -2.2490    -0.1890     1.6810 h1         1 4AB       0.047200
     26 H72         -1.3510     1.2510     1.1780 h1         1 4AB       0.047200
     27 H9           1.3400    -0.7920     2.8880 h1         1 4AB       0.069700
     28 H9O1         1.2620     1.2880     1.5720 ho         1 4AB       0.438000
     29 H10         -1.2570     0.5740     3.7420 h1         1 4AB       0.066700
     30 H113        -0.4880     0.1090     6.0760 hc         1 4AB       0.047367
     31 H112         1.0700    -0.4800     5.4500 hc         1 4AB       0.047367
     32 H111         0.6030     1.2200     5.2350 hc         1 4AB       0.047367
     33 H1O1        -0.3630    -2.0390     4.4770 ho         1 4AB       0.442000
@<TRIPOS>BOND
     1     1     2 ar  
     2     1     8 ar  
     3     2     3 1   
     4     2     4 ar  
     5     3    18 1   
     6     3    19 1   
     7     4     5 ar  
     8     5     6 1   
     9     5     7 ar  
    10     6    20 1   
    11     6    21 1   
    12     7     8 ar  
    13     7     9 1   
    14     8    10 1   
    15     9    11 1   
    16     9    22 1   
    17    10    12 1   
    18    10    23 1   
    19    11    12 1   
    20    11    13 1   
    21    11    24 1   
    22    12    25 1   
    23    12    26 1   
    24    13    14 1   
    25    13    15 1   
    26    13    27 1   
    27    14    28 1   
    28    15    16 1   
    29    15    17 1   
    30    15    29 1   
    31    16    30 1   
    32    16    31 1   
    33    16    32 1   
    34    17    33 1   
@<TRIPOS>SUBSTRUCTURE
     1 4AB         1 TEMP              0 ****  ****    0 ROOT
