@<TRIPOS>MOLECULE
4AE
   52    55     1     0     0
SMALL
No Charge or Current Charge


@<TRIPOS>ATOM
      1 CAA         -4.8160     3.1110    -2.6680 c3         1 4AE       0.146900
      2 OAS         -4.8480     3.0340    -1.2310 os         1 4AE      -0.337100
      3 CAU         -3.9340     2.2890    -0.5140 ca         1 4AE       0.147100
      4 CAK         -2.9170     1.5310    -1.1340 ca         1 4AE      -0.166000
      5 CAM         -2.0060     0.7980    -0.3520 ca         1 4AE      -0.077000
      6 CAJ         -4.0320     2.3000     0.8860 ca         1 4AE      -0.166000
      7 CAL         -3.1230     1.5660     1.6700 ca         1 4AE      -0.077000
      8 CAV         -2.1110     0.8110     1.0560 ca         1 4AE       0.050100
      9 OAT         -1.2270     0.1210     1.8580 os         1 4AE      -0.260200
     10 CAX         -0.3630    -0.8310     1.3610 ca         1 4AE       0.123100
     11 CAQ         -0.8850    -2.0430     0.8630 ca         1 4AE      -0.182000
     12 CBB          0.0080    -2.9590     0.2970 ca         1 4AE       0.042600
     13 NBD         -0.1910    -4.3320    -0.0100 n          1 4AE      -0.291000
     14 CAC         -1.4860    -4.9220    -0.3860 c3         1 4AE       0.103300
     15 CAZ          1.0420    -4.9660    -0.2180 c          1 4AE       0.597000
     16 OAD          1.2340    -6.1200    -0.5780 o          1 4AE      -0.559000
     17 NBC          2.0080    -3.9800     0.0280 n          1 4AE      -0.285000
     18 CAB          3.4390    -4.1400    -0.2830 c3         1 4AE       0.103300
     19 CBA          1.3790    -2.7390     0.3280 ca         1 4AE      -0.026400
     20 CAP          1.9230    -1.5900     0.9190 ca         1 4AE      -0.044000
     21 CAW          1.0410    -0.5940     1.3940 ca         1 4AE       0.192000
     22 NAR          1.5310     0.6000     1.9340 nu         1 4AE      -0.850100
     23 SBE          2.4660     1.7360     1.1280 sy         1 4AE       1.137600
     24 OAE          2.4220     2.8900     2.0270 o          1 4AE      -0.534000
     25 OAF          3.7100     1.0280     0.8120 o          1 4AE      -0.534000
     26 CAY          1.5430     2.0860    -0.3730 ca         1 4AE      -0.297500
     27 CAN          1.7270     1.2810    -1.5160 ca         1 4AE      -0.007500
     28 CAH          0.9930     1.5450    -2.6860 ca         1 4AE      -0.134500
     29 CAG          0.0760     2.6090    -2.7210 ca         1 4AE      -0.065000
     30 CAI         -0.1110     3.4100    -1.5810 ca         1 4AE      -0.134500
     31 CAO          0.6160     3.1490    -0.4060 ca         1 4AE      -0.007500
     32 H1          -4.9500     2.1170    -3.1140 h1         1 4AE       0.043367
     33 H2          -5.6230     3.7590    -3.0310 h1         1 4AE       0.043367
     34 H3          -3.8620     3.5280    -3.0150 h1         1 4AE       0.043367
     35 H4          -2.8100     1.5050    -2.2150 ha         1 4AE       0.128500
     36 H5          -1.2180     0.2370    -0.8480 ha         1 4AE       0.132500
     37 H6          -4.8130     2.8840     1.3670 ha         1 4AE       0.128500
     38 H7          -3.2030     1.5830     2.7550 ha         1 4AE       0.132500
     39 H8          -1.9500    -2.2540     0.9190 ha         1 4AE       0.140000
     40 H9          -1.7760    -4.5680    -1.3830 h1         1 4AE       0.052700
     41 H10         -1.4160    -6.0170    -0.3980 h1         1 4AE       0.052700
     42 H11         -2.2530    -4.6250     0.3400 h1         1 4AE       0.052700
     43 H12          3.5750    -4.9070    -1.0550 h1         1 4AE       0.054700
     44 H13          3.8500    -3.1910    -0.6510 h1         1 4AE       0.054700
     45 H14          3.9800    -4.4400     0.6230 h1         1 4AE       0.054700
     46 H15          2.9980    -1.4770     1.0240 ha         1 4AE       0.155000
     47 H16          0.8180     1.1720     2.3680 hn         1 4AE       0.498000
     48 H17          2.4320     0.4510    -1.5030 ha         1 4AE       0.137000
     49 H18          1.1350     0.9220    -3.5660 ha         1 4AE       0.118500
     50 H19         -0.4910     2.8110    -3.6270 ha         1 4AE       0.114000
     51 H20         -0.8260     4.2290    -1.6050 ha         1 4AE       0.118500
     52 H21          0.4540     3.7740     0.4710 ha         1 4AE       0.137000
@<TRIPOS>BOND
     1     1     2 1   
     2     1    32 1   
     3     1    33 1   
     4     1    34 1   
     5     2     3 1   
     6     3     4 ar  
     7     3     6 ar  
     8     4     5 ar  
     9     4    35 1   
    10     5     8 ar  
    11     5    36 1   
    12     6     7 ar  
    13     6    37 1   
    14     7     8 ar  
    15     7    38 1   
    16     8     9 1   
    17     9    10 1   
    18    10    11 ar  
    19    10    21 ar  
    20    11    12 ar  
    21    11    39 1   
    22    12    13 1   
    23    12    19 ar  
    24    13    14 1   
    25    13    15 1   
    26    14    40 1   
    27    14    41 1   
    28    14    42 1   
    29    15    16 2   
    30    15    17 1   
    31    17    18 1   
    32    17    19 1   
    33    18    43 1   
    34    18    44 1   
    35    18    45 1   
    36    19    20 ar  
    37    20    21 ar  
    38    20    46 1   
    39    21    22 1   
    40    22    23 1   
    41    22    47 1   
    42    23    24 2   
    43    23    25 2   
    44    23    26 1   
    45    26    27 ar  
    46    26    31 ar  
    47    27    28 ar  
    48    27    48 1   
    49    28    29 ar  
    50    28    49 1   
    51    29    30 ar  
    52    29    50 1   
    53    30    31 ar  
    54    30    51 1   
    55    31    52 1   
@<TRIPOS>SUBSTRUCTURE
     1 4AE         1 TEMP              0 ****  ****    0 ROOT
