@<TRIPOS>MOLECULE
4AE
   52    55     1     0     0
SMALL
abcg2


@<TRIPOS>ATOM
      1 CAA         -5.9730     2.2420    -2.1560 c3         1 4AE       0.146900
      2 OAS         -5.7170     1.8900    -0.8110 os         1 4AE      -0.337100
      3 CAU         -4.4480     1.6300    -0.4440 ca         1 4AE       0.147100
      4 CAK         -3.3560     1.6700    -1.3080 ca         1 4AE      -0.166000
      5 CAM         -2.0810     1.3940    -0.8270 ca         1 4AE      -0.077000
      6 CAJ         -4.2480     1.3060     0.8990 ca         1 4AE      -0.166000
      7 CAL         -2.9780     1.0290     1.3720 ca         1 4AE      -0.077000
      8 CAV         -1.8950     1.0800     0.5050 ca         1 4AE       0.050100
      9 OAT         -0.6300     0.8590     0.9960 os         1 4AE      -0.260200
     10 CAX         -0.0500    -0.3580     0.8340 ca         1 4AE       0.123100
     11 CAQ         -0.7040    -1.4480     0.2650 ca         1 4AE      -0.182000
     12 CBB          0.0110    -2.6260     0.1660 ca         1 4AE       0.042600
     13 NBD         -0.3410    -3.8500    -0.3440 n          1 4AE      -0.291000
     14 CAC         -1.6210    -4.1760    -0.9190 c3         1 4AE       0.103300
     15 CAZ          0.7100    -4.7350    -0.2090 c          1 4AE       0.597000
     16 OAD          0.7270    -5.9020    -0.5580 o          1 4AE      -0.559000
     17 NBC          1.7250    -4.0350     0.3940 n          1 4AE      -0.285000
     18 CAB          3.0190    -4.5730     0.7240 c3         1 4AE       0.103300
     19 CBA          1.3200    -2.7390     0.6350 ca         1 4AE      -0.026400
     20 CAP          1.9580    -1.6720     1.2260 ca         1 4AE      -0.044000
     21 CAW          1.2620    -0.4670     1.3150 ca         1 4AE       0.192000
     22 NAR          1.8940     0.6540     1.9080 nu         1 4AE      -0.850100
     23 SBE          2.9770     1.5230     0.9880 sy         1 4AE       1.137600
     24 OAE          3.3420     2.6680     1.8040 o          1 4AE      -0.534000
     25 OAF          3.9940     0.5880     0.5410 o          1 4AE      -0.534000
     26 CAY          2.1030     2.0910    -0.4430 ca         1 4AE      -0.297500
     27 CAN          2.0900     1.3050    -1.5880 ca         1 4AE      -0.007500
     28 CAH          1.3930     1.7540    -2.7010 ca         1 4AE      -0.134500
     29 CAG          0.7270     2.9710    -2.6620 ca         1 4AE      -0.065000
     30 CAI          0.7440     3.7440    -1.5070 ca         1 4AE      -0.134500
     31 CAO          1.4320     3.3060    -0.3870 ca         1 4AE      -0.007500
     32 H1          -5.7050     1.4380    -2.8460 h1         1 4AE       0.043367
     33 H2          -7.0420     2.4240    -2.2300 h1         1 4AE       0.043367
     34 H3          -5.4400     3.1500    -2.4480 h1         1 4AE       0.043367
     35 H4          -3.4700     1.9150    -2.3550 ha         1 4AE       0.128500
     36 H5          -1.2340     1.4320    -1.5000 ha         1 4AE       0.132500
     37 H6          -5.0950     1.2750     1.5730 ha         1 4AE       0.128500
     38 H7          -2.8300     0.7820     2.4150 ha         1 4AE       0.132500
     39 H8          -1.7230    -1.3760    -0.0900 ha         1 4AE       0.140000
     40 H9          -1.8360    -3.5300    -1.7700 h1         1 4AE       0.052700
     41 H10         -1.6050    -5.2060    -1.2610 h1         1 4AE       0.052700
     42 H11         -2.4150    -4.0640    -0.1810 h1         1 4AE       0.052700
     43 H12          3.0570    -5.6180     0.4320 h1         1 4AE       0.054700
     44 H13          3.8060    -4.0350     0.1970 h1         1 4AE       0.054700
     45 H14          3.2010    -4.5050     1.7960 h1         1 4AE       0.054700
     46 H15          2.9610    -1.7490     1.6230 ha         1 4AE       0.155000
     47 H16          1.2780     1.2710     2.4280 hn         1 4AE       0.498000
     48 H17          2.6240     0.3660    -1.6260 ha         1 4AE       0.137000
     49 H18          1.3790     1.1530    -3.6000 ha         1 4AE       0.118500
     50 H19          0.1900     3.3200    -3.5350 ha         1 4AE       0.114000
     51 H20          0.2250     4.6920    -1.4790 ha         1 4AE       0.118500
     52 H21          1.4480     3.9120     0.5090 ha         1 4AE       0.137000
@<TRIPOS>BOND
     1     1     2 1   
     2     1    32 1   
     3     1    33 1   
     4     1    34 1   
     5     2     3 1   
     6     3     4 ar  
     7     3     6 ar  
     8     4     5 ar  
     9     4    35 1   
    10     5     8 ar  
    11     5    36 1   
    12     6     7 ar  
    13     6    37 1   
    14     7     8 ar  
    15     7    38 1   
    16     8     9 1   
    17     9    10 1   
    18    10    11 ar  
    19    10    21 ar  
    20    11    12 ar  
    21    11    39 1   
    22    12    13 1   
    23    12    19 ar  
    24    13    14 1   
    25    13    15 1   
    26    14    40 1   
    27    14    41 1   
    28    14    42 1   
    29    15    16 2   
    30    15    17 1   
    31    17    18 1   
    32    17    19 1   
    33    18    43 1   
    34    18    44 1   
    35    18    45 1   
    36    19    20 ar  
    37    20    21 ar  
    38    20    46 1   
    39    21    22 1   
    40    22    23 1   
    41    22    47 1   
    42    23    24 2   
    43    23    25 2   
    44    23    26 1   
    45    26    27 ar  
    46    26    31 ar  
    47    27    28 ar  
    48    27    48 1   
    49    28    29 ar  
    50    28    49 1   
    51    29    30 ar  
    52    29    50 1   
    53    30    31 ar  
    54    30    51 1   
    55    31    52 1   
@<TRIPOS>SUBSTRUCTURE
     1 4AE         1 TEMP              0 ****  ****    0 ROOT
