@<TRIPOS>MOLECULE
4AF
   27    27     1     0     0
SMALL
No Charge or Current Charge


@<TRIPOS>ATOM
      1 C11          4.8530     1.2500     0.6630 c3         1 4AF      -0.195100
      2 C8           4.1640    -0.0040     0.1180 c          1 4AF       0.590700
      3 O2           4.8330    -1.0050    -0.1150 o          1 4AF      -0.554100
      4 C7           2.6660     0.0070    -0.1270 ca         1 4AF      -0.211600
      5 C9           2.0270    -1.1510    -0.6280 ca         1 4AF      -0.070000
      6 C10          0.6410    -1.1630    -0.8630 ca         1 4AF      -0.124500
      7 C6           1.8760     1.1520     0.1320 ca         1 4AF      -0.070000
      8 C5           0.4900     1.1340    -0.1040 ca         1 4AF      -0.124500
      9 C4          -0.1390    -0.0230    -0.5990 ca         1 4AF       0.004700
     10 C3          -1.6420    -0.0270    -0.8700 c3         1 4AF      -0.030100
     11 C1          -2.5180     0.0350     0.4110 c3         1 4AF       0.018500
     12 C2          -4.0250     0.3250     0.0220 c          1 4AF       0.692000
     13 OX1         -4.4920     1.4230     0.2920 o          1 4AF      -0.730500
     14 O           -4.6970    -0.5920    -0.4330 o          1 4AF      -0.730500
     15 N           -2.2810    -1.1700     1.2910 n8         1 4AF      -0.999200
     16 H111         5.9320     1.1150     0.7970 hc         1 4AF       0.053367
     17 H112         4.6360     2.0950    -0.0000 hc         1 4AF       0.053367
     18 H113         4.3680     1.5470     1.5990 hc         1 4AF       0.053367
     19 H9           2.6020    -2.0500    -0.8410 ha         1 4AF       0.106500
     20 H10          0.1730    -2.0660    -1.2490 ha         1 4AF       0.119500
     21 H6           2.3190     2.0670     0.5160 ha         1 4AF       0.106500
     22 H5          -0.0980     2.0260     0.0970 ha         1 4AF       0.119500
     23 H31         -1.8880     0.8380    -1.4990 hc         1 4AF       0.054700
     24 H32         -1.9260    -0.9090    -1.4570 hc         1 4AF       0.054700
     25 H1          -2.1820     0.9100     0.9860 h1         1 4AF       0.042700
     26 HN1         -2.8310    -1.0690     2.1520 hn         1 4AF       0.383500
     27 HN2         -2.7080    -1.9880     0.8380 hn         1 4AF       0.383500
@<TRIPOS>BOND
     1     1     2 1   
     2     1    16 1   
     3     1    17 1   
     4     1    18 1   
     5     2     3 2   
     6     2     4 1   
     7     4     5 ar  
     8     4     7 ar  
     9     5     6 ar  
    10     5    19 1   
    11     6     9 ar  
    12     6    20 1   
    13     7     8 ar  
    14     7    21 1   
    15     8     9 ar  
    16     8    22 1   
    17     9    10 1   
    18    10    11 1   
    19    10    23 1   
    20    10    24 1   
    21    11    12 1   
    22    11    15 1   
    23    11    25 1   
    24    12    13 1   
    25    12    14 1   
    26    15    26 1   
    27    15    27 1   
@<TRIPOS>SUBSTRUCTURE
     1 4AF         1 TEMP              0 ****  ****    0 ROOT
