@<TRIPOS>MOLECULE
4AF
   27    27     1     0     0
SMALL
bcc


@<TRIPOS>ATOM
      1 C11          4.7910     1.2300     0.5760 c3         1 4AF      -0.195100
      2 C8           4.0720    -0.0380     0.2010 c          1 4AF       0.590700
      3 O2           4.6700    -1.0900     0.0970 o          1 4AF      -0.554100
      4 C7           2.6080     0.0290    -0.0480 ca         1 4AF      -0.211600
      5 C9           1.9240    -1.1250    -0.4350 ca         1 4AF      -0.088000
      6 C10          0.5640    -1.0890    -0.6860 ca         1 4AF      -0.142500
      7 C6           1.8880     1.2170     0.0810 ca         1 4AF      -0.088000
      8 C5           0.5270     1.2470    -0.1750 ca         1 4AF      -0.142500
      9 C4          -0.1570     0.0980    -0.5670 ca         1 4AF       0.004700
     10 C3          -1.6310     0.1520    -0.8270 c3         1 4AF      -0.030100
     11 C1          -2.4710    -0.0730     0.4420 c3         1 4AF       0.018500
     12 C2          -3.9550     0.2500     0.1240 c          1 4AF       0.902600
     13 OX1         -4.2030     1.4420    -0.1560 o          1 4AF      -0.835800
     14 O           -4.7720    -0.6900     0.1610 o          1 4AF      -0.835800
     15 N           -2.2110    -1.3970     0.9760 n8         1 4AF      -0.888800
     16 H111         5.8540     1.0400     0.6960 hc         1 4AF       0.053367
     17 H112         4.6530     1.9970    -0.1870 hc         1 4AF       0.053367
     18 H113         4.4010     1.6380     1.5110 hc         1 4AF       0.053367
     19 H9           2.4630    -2.0570    -0.5440 ha         1 4AF       0.124500
     20 H10          0.0550    -1.9940    -0.9940 ha         1 4AF       0.137500
     21 H6           2.3820     2.1330     0.3770 ha         1 4AF       0.124500
     22 H5          -0.0130     2.1810    -0.0760 ha         1 4AF       0.137500
     23 H31         -1.8920     1.1260    -1.2430 hc         1 4AF       0.054700
     24 H32         -1.9050    -0.6010    -1.5730 hc         1 4AF       0.054700
     25 H1          -2.1340     0.6560     1.1880 h1         1 4AF       0.042700
     26 HN1         -2.7110    -1.4960     1.8510 hn         1 4AF       0.328300
     27 HN2         -2.6420    -2.0790     0.3620 hn         1 4AF       0.328300
@<TRIPOS>BOND
     1     1     2 1   
     2     1    16 1   
     3     1    17 1   
     4     1    18 1   
     5     2     3 2   
     6     2     4 1   
     7     4     5 ar  
     8     4     7 ar  
     9     5     6 ar  
    10     5    19 1   
    11     6     9 ar  
    12     6    20 1   
    13     7     8 ar  
    14     7    21 1   
    15     8     9 ar  
    16     8    22 1   
    17     9    10 1   
    18    10    11 1   
    19    10    23 1   
    20    10    24 1   
    21    11    12 1   
    22    11    15 1   
    23    11    25 1   
    24    12    13 1   
    25    12    14 1   
    26    15    26 1   
    27    15    27 1   
@<TRIPOS>SUBSTRUCTURE
     1 4AF         1 TEMP              0 ****  ****    0 ROOT
