@<TRIPOS>MOLECULE
4AG
  108   107     1     0     0
SMALL
bcc


@<TRIPOS>ATOM
      1 C01        -19.1060     5.6560    -0.3890 c3         1 4AG      -0.088100
      2 C02        -18.1190     4.8050     0.3980 c3         1 4AG      -0.075400
      3 C03        -16.8390     4.5170    -0.3780 c3         1 4AG      -0.075400
      4 C04        -15.8420     3.6660     0.3980 c3         1 4AG      -0.074400
      5 C05        -14.5660     3.3690    -0.3800 c3         1 4AG      -0.074400
      6 C06        -13.5750     2.5150     0.4000 c3         1 4AG      -0.074400
      7 C07        -12.2970     2.2090    -0.3710 c3         1 4AG      -0.073400
      8 C08        -11.3170     1.3510     0.4190 c3         1 4AG      -0.075400
      9 C09        -10.0340     1.0300    -0.3390 c3         1 4AG      -0.073400
     10 C10         -9.0730     0.1660     0.4670 c3         1 4AG      -0.075400
     11 C11         -7.7820    -0.1720    -0.2680 c3         1 4AG      -0.073400
     12 C12         -6.8510    -1.0490     0.5590 c3         1 4AG      -0.075400
     13 C13         -5.5510    -1.4120    -0.1480 c3         1 4AG      -0.074400
     14 C14         -4.6740    -2.3210     0.7030 c3         1 4AG      -0.069400
     15 C15         -3.3720    -2.6980     0.0130 c3         1 4AG      -0.136400
     16 C16         -2.5410    -3.6670     0.8100 c          1 4AG       0.639100
     17 O17         -1.4080    -3.9750     0.1880 os         1 4AG      -0.392900
     18 C18         -0.5650    -4.9350     0.8180 c3         1 4AG       0.145400
     19 C20          0.3410    -5.8480    -1.4070 c3         1 4AG       0.124400
     20 O21          1.4010    -4.0360    -0.1750 os         1 4AG      -0.402900
     21 C22          2.7280    -4.1280    -0.2340 c          1 4AG       0.642100
     22 C23          3.3750    -2.7770    -0.3740 c3         1 4AG      -0.136400
     23 C24          4.8740    -2.8050    -0.1190 c3         1 4AG      -0.069400
     24 C25          5.5260    -1.4410    -0.3050 c3         1 4AG      -0.074400
     25 C26          7.0210    -1.4730    -0.0190 c3         1 4AG      -0.075400
     26 C27          7.7160    -0.1350    -0.2340 c3         1 4AG      -0.073400
     27 C28          9.2070    -0.1870     0.0740 c3         1 4AG      -0.074400
     28 C29          9.9270     1.1340    -0.1630 c3         1 4AG      -0.073400
     29 C30         11.4150     1.0670     0.1560 c3         1 4AG      -0.074400
     30 C31         12.1500     2.3780    -0.0960 c3         1 4AG      -0.074400
     31 C32         13.6370     2.3010     0.2260 c3         1 4AG      -0.074400
     32 C33         14.3820     3.6040    -0.0380 c3         1 4AG      -0.074400
     33 C34         15.8680     3.5220     0.2840 c3         1 4AG      -0.074400
     34 C35         16.6180     4.8190     0.0110 c3         1 4AG      -0.075400
     35 C36         18.1050     4.7360     0.3330 c3         1 4AG      -0.074400
     36 C37         18.8460     6.0350     0.0510 c3         1 4AG      -0.088100
     37 O38          3.3250    -5.1750    -0.1890 o          1 4AG      -0.547000
     38 C6           0.6350    -5.2410    -0.0470 c3         1 4AG       0.150100
     39 O39         -2.8500    -4.1290     1.8800 o          1 4AG      -0.546000
     40 O8          -0.2800    -4.9170    -2.2520 oh         1 4AG      -0.571800
     41 H011       -18.6720     6.6230    -0.6470 hc         1 4AG       0.031367
     42 H012       -19.3910     5.1650    -1.3220 hc         1 4AG       0.031367
     43 H013       -20.0190     5.8430     0.1770 hc         1 4AG       0.031367
     44 H021       -17.8670     5.3080     1.3370 hc         1 4AG       0.036700
     45 H022       -18.5910     3.8590     0.6800 hc         1 4AG       0.036700
     46 H031       -17.0920     4.0140    -1.3180 hc         1 4AG       0.036700
     47 H032       -16.3660     5.4640    -0.6610 hc         1 4AG       0.036700
     48 H041       -15.5870     4.1710     1.3360 hc         1 4AG       0.036700
     49 H042       -16.3180     2.7210     0.6860 hc         1 4AG       0.036700
     50 H051       -14.8210     2.8640    -1.3180 hc         1 4AG       0.036700
     51 H052       -14.0880     4.3130    -0.6660 hc         1 4AG       0.036700
     52 H061       -13.3190     3.0220     1.3370 hc         1 4AG       0.036700
     53 H062       -14.0570     1.5740     0.6890 hc         1 4AG       0.036700
     54 H071       -12.5500     1.7020    -1.3080 hc         1 4AG       0.037200
     55 H072       -11.8100     3.1480    -0.6580 hc         1 4AG       0.037200
     56 H081       -11.0650     1.8600     1.3560 hc         1 4AG       0.036700
     57 H082       -11.8080     0.4150     0.7090 hc         1 4AG       0.036700
     58 H091       -10.2830     0.5210    -1.2760 hc         1 4AG       0.037200
     59 H092        -9.5360     1.9630    -0.6250 hc         1 4AG       0.037200
     60 H101        -8.8300     0.6750     1.4070 hc         1 4AG       0.037700
     61 H102        -9.5780    -0.7640     0.7530 hc         1 4AG       0.037700
     62 H111        -8.0200    -0.6790    -1.2090 hc         1 4AG       0.037200
     63 H112        -7.2660     0.7540    -0.5450 hc         1 4AG       0.037200
     64 H121        -6.6170    -0.5400     1.5010 hc         1 4AG       0.039700
     65 H122        -7.3760    -1.9690     0.8370 hc         1 4AG       0.039700
     66 H131        -5.7780    -1.9080    -1.0990 hc         1 4AG       0.038200
     67 H132        -5.0050    -0.4980    -0.4050 hc         1 4AG       0.038200
     68 H141        -4.4570    -1.8280     1.6540 hc         1 4AG       0.053200
     69 H142        -5.2340    -3.2270     0.9490 hc         1 4AG       0.053200
     70 H151        -3.5700    -3.1490    -0.9650 hc         1 4AG       0.073700
     71 H152        -2.7700    -1.8080    -0.1940 hc         1 4AG       0.073700
     72 H181        -0.2290    -4.5660     1.7900 h1         1 4AG       0.056700
     73 H182        -1.1060    -5.8690     0.9880 h1         1 4AG       0.056700
     74 H6           1.2040    -5.9900     0.5110 h1         1 4AG       0.073700
     75 H201         1.2860    -6.2080    -1.8300 h1         1 4AG       0.029700
     76 H202        -0.2790    -6.7390    -1.2340 h1         1 4AG       0.029700
     77 H8          -0.2930    -5.2910    -3.1380 ho         1 4AG       0.401000
     78 H231         3.1670    -2.4160    -1.3870 hc         1 4AG       0.074200
     79 H232         2.8790    -2.0710     0.2970 hc         1 4AG       0.074200
     80 H241         5.0650    -3.1620     0.8970 hc         1 4AG       0.053200
     81 H242         5.3500    -3.5240    -0.7910 hc         1 4AG       0.053200
     82 H251         5.3560    -1.0910    -1.3300 hc         1 4AG       0.038700
     83 H252         5.0450    -0.7070     0.3500 hc         1 4AG       0.038700
     84 H261         7.1820    -1.8040     1.0120 hc         1 4AG       0.039700
     85 H262         7.4940    -2.2310    -0.6550 hc         1 4AG       0.039700
     86 H271         7.5690     0.1890    -1.2700 hc         1 4AG       0.037700
     87 H272         7.2420     0.6290     0.3920 hc         1 4AG       0.037700
     88 H281         9.3500    -0.4970     1.1150 hc         1 4AG       0.037700
     89 H282         9.6750    -0.9670    -0.5380 hc         1 4AG       0.037700
     90 H291         9.7920     1.4400    -1.2060 hc         1 4AG       0.037700
     91 H292         9.4600     1.9190     0.4440 hc         1 4AG       0.037700
     92 H301        11.5470     0.7720     1.2020 hc         1 4AG       0.037700
     93 H302        11.8770     0.2730    -0.4410 hc         1 4AG       0.037700
     94 H311        12.0210     2.6710    -1.1440 hc         1 4AG       0.037200
     95 H312        11.6890     3.1750     0.4980 hc         1 4AG       0.037200
     96 H321        13.7650     2.0160     1.2760 hc         1 4AG       0.036700
     97 H322        14.0940     1.4970    -0.3610 hc         1 4AG       0.036700
     98 H331        14.2540     3.8880    -1.0880 hc         1 4AG       0.036700
     99 H332        13.9260     4.4090     0.5490 hc         1 4AG       0.036700
    100 H341        15.9960     3.2430     1.3360 hc         1 4AG       0.036700
    101 H342        16.3210     2.7120    -0.2980 hc         1 4AG       0.036700
    102 H351        16.4910     5.0980    -1.0410 hc         1 4AG       0.036700
    103 H352        16.1660     5.6310     0.5930 hc         1 4AG       0.036700
    104 H361        18.2320     4.4610     1.3850 hc         1 4AG       0.036700
    105 H362        18.5540     3.9230    -0.2470 hc         1 4AG       0.036700
    106 H371        18.7740     6.3110    -1.0020 hc         1 4AG       0.031367
    107 H372        18.4310     6.8600     0.6350 hc         1 4AG       0.031367
    108 H373        19.9060     5.9560     0.2990 hc         1 4AG       0.031367
@<TRIPOS>BOND
     1     1     2 1   
     2     1    41 1   
     3     1    42 1   
     4     1    43 1   
     5     2     3 1   
     6     2    44 1   
     7     2    45 1   
     8     3     4 1   
     9     3    46 1   
    10     3    47 1   
    11     4     5 1   
    12     4    48 1   
    13     4    49 1   
    14     5     6 1   
    15     5    50 1   
    16     5    51 1   
    17     6     7 1   
    18     6    52 1   
    19     6    53 1   
    20     7     8 1   
    21     7    54 1   
    22     7    55 1   
    23     8     9 1   
    24     8    56 1   
    25     8    57 1   
    26     9    10 1   
    27     9    58 1   
    28     9    59 1   
    29    10    11 1   
    30    10    60 1   
    31    10    61 1   
    32    11    12 1   
    33    11    62 1   
    34    11    63 1   
    35    12    13 1   
    36    12    64 1   
    37    12    65 1   
    38    13    14 1   
    39    13    66 1   
    40    13    67 1   
    41    14    15 1   
    42    14    68 1   
    43    14    69 1   
    44    15    16 1   
    45    15    70 1   
    46    15    71 1   
    47    16    17 1   
    48    16    39 2   
    49    17    18 1   
    50    18    38 1   
    51    18    72 1   
    52    18    73 1   
    53    19    38 1   
    54    19    40 1   
    55    19    75 1   
    56    19    76 1   
    57    20    21 1   
    58    20    38 1   
    59    21    22 1   
    60    21    37 2   
    61    22    23 1   
    62    22    78 1   
    63    22    79 1   
    64    23    24 1   
    65    23    80 1   
    66    23    81 1   
    67    24    25 1   
    68    24    82 1   
    69    24    83 1   
    70    25    26 1   
    71    25    84 1   
    72    25    85 1   
    73    26    27 1   
    74    26    86 1   
    75    26    87 1   
    76    27    28 1   
    77    27    88 1   
    78    27    89 1   
    79    28    29 1   
    80    28    90 1   
    81    28    91 1   
    82    29    30 1   
    83    29    92 1   
    84    29    93 1   
    85    30    31 1   
    86    30    94 1   
    87    30    95 1   
    88    31    32 1   
    89    31    96 1   
    90    31    97 1   
    91    32    33 1   
    92    32    98 1   
    93    32    99 1   
    94    33    34 1   
    95    33   100 1   
    96    33   101 1   
    97    34    35 1   
    98    34   102 1   
    99    34   103 1   
   100    35    36 1   
   101    35   104 1   
   102    35   105 1   
   103    36   106 1   
   104    36   107 1   
   105    36   108 1   
   106    38    74 1   
   107    40    77 1   
@<TRIPOS>SUBSTRUCTURE
     1 4AG         1 TEMP              0 ****  ****    0 ROOT
