@<TRIPOS>MOLECULE
4AG
  108   107     1     0     0
SMALL
No Charge or Current Charge


@<TRIPOS>ATOM
      1 C01        -18.7660     5.1340    -1.2490 c3         1 4AG      -0.088100
      2 C02        -17.9190     3.8750    -0.9780 c3         1 4AG      -0.075400
      3 C03        -16.4210     4.1870    -0.7700 c3         1 4AG      -0.075400
      4 C04        -15.5730     2.9250    -0.4990 c3         1 4AG      -0.074400
      5 C05        -14.0750     3.2370    -0.2910 c3         1 4AG      -0.074400
      6 C06        -13.2270     1.9750    -0.0190 c3         1 4AG      -0.074400
      7 C07        -11.7290     2.2860     0.1880 c3         1 4AG      -0.073400
      8 C08        -10.8810     1.0250     0.4600 c3         1 4AG      -0.075400
      9 C09         -9.3820     1.3360     0.6680 c3         1 4AG      -0.073400
     10 C10         -8.5350     0.0750     0.9400 c3         1 4AG      -0.075400
     11 C11         -7.0360     0.3860     1.1480 c3         1 4AG      -0.073400
     12 C12         -6.1890    -0.8750     1.4200 c3         1 4AG      -0.075400
     13 C13         -4.6910    -0.5630     1.6290 c3         1 4AG      -0.074400
     14 C14         -3.8430    -1.8250     1.9020 c3         1 4AG      -0.069400
     15 C15         -2.3420    -1.5120     2.1110 c3         1 4AG      -0.136400
     16 C16         -1.5390    -2.7890     2.3690 c          1 4AG       0.590100
     17 O17         -0.9880    -3.2840     1.2190 os         1 4AG      -0.416100
     18 C18         -0.2050    -4.4930     1.3060 c3         1 4AG       0.168600
     19 C20         -0.7870    -5.1720    -1.1570 c3         1 4AG       0.147600
     20 O21          1.2290    -3.8460    -0.5510 os         1 4AG      -0.426100
     21 C22          2.0680    -4.0970    -1.6060 c          1 4AG       0.593100
     22 C23          2.8850    -2.8610    -1.9840 c3         1 4AG      -0.136400
     23 C24          4.2590    -2.8550    -1.2730 c3         1 4AG      -0.069400
     24 C25          5.1130    -1.6160    -1.6190 c3         1 4AG      -0.074400
     25 C26          6.4840    -1.6100    -0.9090 c3         1 4AG      -0.075400
     26 C27          7.3380    -0.3710    -1.2550 c3         1 4AG      -0.073400
     27 C28          8.7090    -0.3640    -0.5440 c3         1 4AG      -0.074400
     28 C29          9.5640     0.8750    -0.8890 c3         1 4AG      -0.073400
     29 C30         10.9350     0.8810    -0.1780 c3         1 4AG      -0.074400
     30 C31         11.7890     2.1210    -0.5240 c3         1 4AG      -0.074400
     31 C32         13.1600     2.1270     0.1880 c3         1 4AG      -0.074400
     32 C33         14.0140     3.3670    -0.1570 c3         1 4AG      -0.074400
     33 C34         15.3840     3.3740     0.5540 c3         1 4AG      -0.074400
     34 C35         16.2390     4.6130     0.2090 c3         1 4AG      -0.075400
     35 C36         17.6090     4.6200     0.9210 c3         1 4AG      -0.074400
     36 C37         18.4620     5.8570     0.5760 c3         1 4AG      -0.088100
     37 O38          2.1810    -5.1800    -2.1660 o          1 4AG      -0.498000
     38 C6           0.3310    -4.8910    -0.0970 c3         1 4AG       0.173300
     39 O39         -1.4180    -3.3030     3.4730 o          1 4AG      -0.497000
     40 O8          -1.3380    -3.9710    -1.7330 oh         1 4AG      -0.634000
     41 H011       -18.7010     5.8340    -0.4070 hc         1 4AG       0.031367
     42 H012       -18.4200     5.6470    -2.1540 hc         1 4AG       0.031367
     43 H013       -19.8190     4.8630    -1.3890 hc         1 4AG       0.031367
     44 H021       -18.3120     3.3670    -0.0880 hc         1 4AG       0.036700
     45 H022       -18.0330     3.1810    -1.8200 hc         1 4AG       0.036700
     46 H031       -16.0330     4.6970    -1.6610 hc         1 4AG       0.036700
     47 H032       -16.3110     4.8830     0.0710 hc         1 4AG       0.036700
     48 H041       -15.9620     2.4150     0.3920 hc         1 4AG       0.036700
     49 H042       -15.6830     2.2290    -1.3400 hc         1 4AG       0.036700
     50 H051       -13.6860     3.7470    -1.1820 hc         1 4AG       0.036700
     51 H052       -13.9650     3.9320     0.5500 hc         1 4AG       0.036700
     52 H061       -13.6150     1.4650     0.8710 hc         1 4AG       0.036700
     53 H062       -13.3370     1.2790    -0.8610 hc         1 4AG       0.036700
     54 H071       -11.3400     2.7960    -0.7020 hc         1 4AG       0.037200
     55 H072       -11.6190     2.9820     1.0290 hc         1 4AG       0.037200
     56 H081       -11.2690     0.5150     1.3500 hc         1 4AG       0.036700
     57 H082       -10.9900     0.3290    -0.3810 hc         1 4AG       0.036700
     58 H091        -8.9940     1.8460    -0.2230 hc         1 4AG       0.037200
     59 H092        -9.2730     2.0320     1.5090 hc         1 4AG       0.037200
     60 H101        -8.9230    -0.4350     1.8300 hc         1 4AG       0.037700
     61 H102        -8.6440    -0.6210     0.0980 hc         1 4AG       0.037700
     62 H111        -6.6480     0.8960     0.2570 hc         1 4AG       0.037200
     63 H112        -6.9270     1.0820     1.9890 hc         1 4AG       0.037200
     64 H121        -6.5780    -1.3850     2.3110 hc         1 4AG       0.039700
     65 H122        -6.2980    -1.5710     0.5790 hc         1 4AG       0.039700
     66 H131        -4.3020    -0.0530     0.7380 hc         1 4AG       0.038200
     67 H132        -4.5810     0.1330     2.4700 hc         1 4AG       0.038200
     68 H141        -4.2320    -2.3360     2.7920 hc         1 4AG       0.053200
     69 H142        -3.9510    -2.5220     1.0600 hc         1 4AG       0.053200
     70 H151        -1.9730    -1.0370     1.1950 hc         1 4AG       0.073700
     71 H152        -2.2320    -0.8380     2.9690 hc         1 4AG       0.073700
     72 H181         0.6470    -4.3530     1.9840 h1         1 4AG       0.056700
     73 H182        -0.8140    -5.3170     1.6990 h1         1 4AG       0.056700
     74 H6           0.8910    -5.8260     0.0460 h1         1 4AG       0.073700
     75 H201        -0.3670    -5.8010    -1.9520 h1         1 4AG       0.029700
     76 H202        -1.5820    -5.7610    -0.6800 h1         1 4AG       0.029700
     77 H8          -2.0380    -4.2470    -2.3640 ho         1 4AG       0.440000
     78 H231         3.0410    -2.8520    -3.0690 hc         1 4AG       0.074200
     79 H232         2.3430    -1.9630    -1.6640 hc         1 4AG       0.074200
     80 H241         4.1020    -2.8940    -0.1870 hc         1 4AG       0.053200
     81 H242         4.8110    -3.7630    -1.5480 hc         1 4AG       0.053200
     82 H251         5.2700    -1.5780    -2.7050 hc         1 4AG       0.038700
     83 H252         4.5610    -0.7080    -1.3430 hc         1 4AG       0.038700
     84 H261         6.3280    -1.6480     0.1770 hc         1 4AG       0.039700
     85 H262         7.0370    -2.5170    -1.1850 hc         1 4AG       0.039700
     86 H271         7.4950    -0.3330    -2.3400 hc         1 4AG       0.037700
     87 H272         6.7860     0.5360    -0.9790 hc         1 4AG       0.037700
     88 H281         8.5520    -0.4020     0.5420 hc         1 4AG       0.037700
     89 H282         9.2620    -1.2710    -0.8190 hc         1 4AG       0.037700
     90 H291         9.7210     0.9130    -1.9750 hc         1 4AG       0.037700
     91 H292         9.0110     1.7820    -0.6140 hc         1 4AG       0.037700
     92 H301        10.7770     0.8440     0.9070 hc         1 4AG       0.037700
     93 H302        11.4880    -0.0250    -0.4540 hc         1 4AG       0.037700
     94 H311        11.9460     2.1590    -1.6090 hc         1 4AG       0.037200
     95 H312        11.2360     3.0280    -0.2480 hc         1 4AG       0.037200
     96 H321        13.0020     2.0900     1.2730 hc         1 4AG       0.036700
     97 H322        13.7130     1.2210    -0.0870 hc         1 4AG       0.036700
     98 H331        14.1710     3.4050    -1.2430 hc         1 4AG       0.036700
     99 H332        13.4610     4.2740     0.1180 hc         1 4AG       0.036700
    100 H341        15.2270     3.3360     1.6400 hc         1 4AG       0.036700
    101 H342        15.9380     2.4670     0.2790 hc         1 4AG       0.036700
    102 H351        16.3960     4.6510    -0.8760 hc         1 4AG       0.036700
    103 H352        15.6860     5.5200     0.4840 hc         1 4AG       0.036700
    104 H361        17.4560     4.5840     2.0060 hc         1 4AG       0.036700
    105 H362        18.1660     3.7160     0.6460 hc         1 4AG       0.036700
    106 H371        18.6630     5.9020    -0.5010 hc         1 4AG       0.031367
    107 H372        17.9460     6.7780     0.8720 hc         1 4AG       0.031367
    108 H373        19.4230     5.8170     1.1040 hc         1 4AG       0.031367
@<TRIPOS>BOND
     1     1     2 1   
     2     1    41 1   
     3     1    42 1   
     4     1    43 1   
     5     2     3 1   
     6     2    44 1   
     7     2    45 1   
     8     3     4 1   
     9     3    46 1   
    10     3    47 1   
    11     4     5 1   
    12     4    48 1   
    13     4    49 1   
    14     5     6 1   
    15     5    50 1   
    16     5    51 1   
    17     6     7 1   
    18     6    52 1   
    19     6    53 1   
    20     7     8 1   
    21     7    54 1   
    22     7    55 1   
    23     8     9 1   
    24     8    56 1   
    25     8    57 1   
    26     9    10 1   
    27     9    58 1   
    28     9    59 1   
    29    10    11 1   
    30    10    60 1   
    31    10    61 1   
    32    11    12 1   
    33    11    62 1   
    34    11    63 1   
    35    12    13 1   
    36    12    64 1   
    37    12    65 1   
    38    13    14 1   
    39    13    66 1   
    40    13    67 1   
    41    14    15 1   
    42    14    68 1   
    43    14    69 1   
    44    15    16 1   
    45    15    70 1   
    46    15    71 1   
    47    16    17 1   
    48    16    39 2   
    49    17    18 1   
    50    18    38 1   
    51    18    72 1   
    52    18    73 1   
    53    19    38 1   
    54    19    40 1   
    55    19    75 1   
    56    19    76 1   
    57    20    21 1   
    58    20    38 1   
    59    21    22 1   
    60    21    37 2   
    61    22    23 1   
    62    22    78 1   
    63    22    79 1   
    64    23    24 1   
    65    23    80 1   
    66    23    81 1   
    67    24    25 1   
    68    24    82 1   
    69    24    83 1   
    70    25    26 1   
    71    25    84 1   
    72    25    85 1   
    73    26    27 1   
    74    26    86 1   
    75    26    87 1   
    76    27    28 1   
    77    27    88 1   
    78    27    89 1   
    79    28    29 1   
    80    28    90 1   
    81    28    91 1   
    82    29    30 1   
    83    29    92 1   
    84    29    93 1   
    85    30    31 1   
    86    30    94 1   
    87    30    95 1   
    88    31    32 1   
    89    31    96 1   
    90    31    97 1   
    91    32    33 1   
    92    32    98 1   
    93    32    99 1   
    94    33    34 1   
    95    33   100 1   
    96    33   101 1   
    97    34    35 1   
    98    34   102 1   
    99    34   103 1   
   100    35    36 1   
   101    35   104 1   
   102    35   105 1   
   103    36   106 1   
   104    36   107 1   
   105    36   108 1   
   106    38    74 1   
   107    40    77 1   
@<TRIPOS>SUBSTRUCTURE
     1 4AG         1 TEMP              0 ****  ****    0 ROOT
