@<TRIPOS>MOLECULE
4AH
   95    99     1     0     0
SMALL
abcg2


@<TRIPOS>ATOM
      1 C1          -3.0520    -0.4680    -0.5340 c3         1 4AH       0.119000
      2 C2          -2.9830    -0.4470     1.0030 c          1 4AH       0.577100
      3 O3          -3.3680    -1.4000     1.6670 o          1 4AH      -0.635100
      4 N4          -2.5590     0.7050     1.5310 ns         1 4AH      -0.459900
      5 C5          -2.6760     1.0140     2.9280 c5         1 4AH       0.166000
      6 C6          -1.9400     2.2720     3.3050 ca         1 4AH      -0.106300
      7 C7          -0.7410     2.7620     2.8170 ca         1 4AH      -0.085000
      8 C8          -0.2480     3.9570     3.3350 ca         1 4AH      -0.114000
      9 C9          -0.9480     4.6370     4.3260 ca         1 4AH      -0.106000
     10 C10         -2.1520     4.1360     4.8140 ca         1 4AH      -0.099000
     11 C11         -2.6440     2.9490     4.2950 ca         1 4AH      -0.075300
     12 C12         -3.8960     2.1950     4.6430 c5         1 4AH      -0.070100
     13 C13         -4.1160     1.2940     3.4170 c5         1 4AH       0.143300
     14 O14         -4.7850     1.9640     2.3770 oh         1 4AH      -0.650000
     15 C24         -4.5580    -0.3510    -0.8570 c3         1 4AH      -0.029100
     16 C25         -4.8670    -0.2250    -2.3210 ca         1 4AH      -0.077300
     17 C26         -5.2690    -1.3360    -3.0600 ca         1 4AH      -0.100500
     18 C27         -5.5550    -1.2310    -4.4150 ca         1 4AH      -0.115500
     19 C28         -5.4480    -0.0040    -5.0540 ca         1 4AH      -0.111000
     20 C29         -5.0600     1.1150    -4.3260 ca         1 4AH      -0.115500
     21 C30         -4.7710     1.0040    -2.9730 ca         1 4AH      -0.100500
     22 O36         -2.3870     0.6260    -1.0980 oh         1 4AH      -0.662000
     23 C41         -2.4630    -1.7730    -1.0950 c3         1 4AH       0.148800
     24 N42         -1.0180    -1.6600    -1.2140 n3         1 4AH      -0.518600
     25 N43         -0.3210    -2.0630    -0.0980 ns         1 4AH      -0.373300
     26 C44         -0.4200    -2.2200    -2.4260 c3         1 4AH       0.214100
     27 C45          0.5270    -1.2300     0.5480 c          1 4AH       0.611100
     28 O46          0.5670    -0.0300     0.3590 o          1 4AH      -0.578100
     29 C47          1.4700    -1.9390     1.5260 c3         1 4AH       0.052700
     30 C48          0.9860    -1.9560     3.0000 c3         1 4AH      -0.048000
     31 C49          0.7750    -0.5470     3.5480 c3         1 4AH      -0.091767
     32 C50         -0.3220    -2.7430     3.0960 c3         1 4AH      -0.091767
     33 N51          2.7710    -1.3380     1.3780 ns         1 4AH      -0.489900
     34 C54          3.8620    -2.0430     1.0270 c          1 4AH       0.639100
     35 O55          3.8980    -3.2380     0.8190 o          1 4AH      -0.554000
     36 O56          4.9340    -1.2460     0.9470 os         1 4AH      -0.456100
     37 C78          0.9180    -1.5900    -2.6840 ca         1 4AH      -0.089300
     38 C79          2.0980    -2.1800    -2.2500 ca         1 4AH      -0.090000
     39 C80          3.3200    -1.5520    -2.4490 ca         1 4AH      -0.097500
     40 C81          3.3890    -0.3210    -3.0990 cp         1 4AH      -0.027000
     41 C82          0.9860    -0.3580    -3.3280 ca         1 4AH      -0.090000
     42 C83          2.2030     0.2650    -3.5430 ca         1 4AH      -0.097500
     43 C91          6.1760    -1.8730     0.6410 c3         1 4AH       0.165900
     44 C92          2.0450    -2.6750     3.8400 c3         1 4AH      -0.091767
     45 C93          6.2360     1.5510    -4.6990 ca         1 4AH      -0.164000
     46 C94          5.0050     0.9360    -4.5460 ca         1 4AH      -0.065000
     47 C95          4.6820     0.3490    -3.3250 cp         1 4AH      -0.085000
     48 C96          5.6350     0.4340    -2.3100 ca         1 4AH       0.342900
     49 N97          6.8180     1.0160    -2.4470 nb         1 4AH      -0.669000
     50 C98          7.1120     1.5600    -3.6230 ca         1 4AH       0.334900
     51 H4          -2.3650     1.4580     0.8880 hn         1 4AH       0.345500
     52 H5          -2.2820     0.1740     3.5110 h1         1 4AH       0.080700
     53 H7          -0.1910     2.2330     2.0470 ha         1 4AH       0.134000
     54 H8           0.6840     4.3610     2.9620 ha         1 4AH       0.115000
     55 H9          -0.5570     5.5670     4.7160 ha         1 4AH       0.111000
     56 H10         -2.6980     4.6740     5.5790 ha         1 4AH       0.113000
     57 H121        -4.7560     2.8340     4.8560 hc         1 4AH       0.058700
     58 H122        -3.7320     1.5770     5.5310 hc         1 4AH       0.058700
     59 H13         -4.6290     0.3650     3.6870 h1         1 4AH       0.055700
     60 H14         -5.6910     2.1230     2.6590 ho         1 4AH       0.441000
     61 H241        -5.0650    -1.2260    -0.4460 hc         1 4AH       0.069200
     62 H242        -4.9490     0.5170    -0.3180 hc         1 4AH       0.069200
     63 H26         -5.3700    -2.2960    -2.5660 ha         1 4AH       0.115000
     64 H27         -5.8650    -2.1080    -4.9680 ha         1 4AH       0.111000
     65 H28         -5.6720     0.0850    -6.1090 ha         1 4AH       0.110000
     66 H29         -4.9840     2.0790    -4.8140 ha         1 4AH       0.111000
     67 H30         -4.4780     1.8850    -2.4170 ha         1 4AH       0.115000
     68 H36         -1.4530     0.3610    -1.1610 ho         1 4AH       0.489000
     69 H411        -2.8590    -1.9200    -2.0990 h1         1 4AH       0.066700
     70 H412        -2.7740    -2.6350    -0.4980 h1         1 4AH       0.066700
     71 H43         -0.2550    -3.0610     0.0700 hn         1 4AH       0.306500
     72 H441        -0.3300    -3.3130    -2.3580 h1         1 4AH       0.049700
     73 H442        -1.0950    -2.0060    -3.2550 h1         1 4AH       0.049700
     74 H47          1.5720    -2.9820     1.2170 h1         1 4AH       0.082700
     75 H491        -0.0150    -0.0210     3.0150 hc         1 4AH       0.042033
     76 H492         0.4850    -0.5970     4.5990 hc         1 4AH       0.042033
     77 H493         1.6790     0.0620     3.4900 hc         1 4AH       0.042033
     78 H501        -0.2090    -3.7550     2.7000 hc         1 4AH       0.042033
     79 H502        -0.6200    -2.8370     4.1420 hc         1 4AH       0.042033
     80 H503        -1.1460    -2.2620     2.5710 hc         1 4AH       0.042033
     81 H51          2.8470    -0.3360     1.4580 hn         1 4AH       0.345500
     82 H79          2.0720    -3.1440    -1.7560 ha         1 4AH       0.118000
     83 H80          4.2280    -2.0430    -2.1210 ha         1 4AH       0.118000
     84 H82          0.0760     0.1210    -3.6690 ha         1 4AH       0.118000
     85 H83          2.2290     1.2250    -4.0450 ha         1 4AH       0.118000
     86 H911         6.9140    -1.0760     0.6270 h1         1 4AH       0.050700
     87 H912         6.4550    -2.6050     1.3990 h1         1 4AH       0.050700
     88 H913         6.1570    -2.3590    -0.3340 h1         1 4AH       0.050700
     89 H921         2.9770    -2.1120     3.8950 hc         1 4AH       0.042033
     90 H922         1.6810    -2.8040     4.8610 hc         1 4AH       0.042033
     91 H923         2.2710    -3.6660     3.4410 hc         1 4AH       0.042033
     92 H94          4.3080     0.8970    -5.3740 ha         1 4AH       0.121000
     93 H96          5.4090     0.0290    -1.3300 h4         1 4AH       0.026100
     94 H98          8.0850     2.0280    -3.7120 h4         1 4AH       0.018100
     95 H93          6.5190     2.0100    -5.6360 ha         1 4AH       0.124000
@<TRIPOS>BOND
     1     1     2 1   
     2     1    15 1   
     3     1    22 1   
     4     1    23 1   
     5     2     3 2   
     6     2     4 1   
     7     4     5 1   
     8     4    51 1   
     9     5     6 1   
    10     5    13 1   
    11     5    52 1   
    12     6     7 ar  
    13     6    11 ar  
    14     7     8 ar  
    15     7    53 1   
    16     8     9 ar  
    17     8    54 1   
    18     9    10 ar  
    19     9    55 1   
    20    10    11 ar  
    21    10    56 1   
    22    11    12 1   
    23    12    13 1   
    24    12    57 1   
    25    12    58 1   
    26    13    14 1   
    27    13    59 1   
    28    14    60 1   
    29    15    16 1   
    30    15    61 1   
    31    15    62 1   
    32    16    17 ar  
    33    16    21 ar  
    34    17    18 ar  
    35    17    63 1   
    36    18    19 ar  
    37    18    64 1   
    38    19    20 ar  
    39    19    65 1   
    40    20    21 ar  
    41    20    66 1   
    42    21    67 1   
    43    22    68 1   
    44    23    24 1   
    45    23    69 1   
    46    23    70 1   
    47    24    25 1   
    48    24    26 1   
    49    25    27 1   
    50    25    71 1   
    51    26    37 1   
    52    26    72 1   
    53    26    73 1   
    54    27    28 2   
    55    27    29 1   
    56    29    30 1   
    57    29    33 1   
    58    29    74 1   
    59    30    31 1   
    60    30    32 1   
    61    30    44 1   
    62    31    75 1   
    63    31    76 1   
    64    31    77 1   
    65    32    78 1   
    66    32    79 1   
    67    32    80 1   
    68    33    34 1   
    69    33    81 1   
    70    34    35 2   
    71    34    36 1   
    72    36    43 1   
    73    37    38 ar  
    74    37    41 ar  
    75    38    39 ar  
    76    38    82 1   
    77    39    40 ar  
    78    39    83 1   
    79    40    42 ar  
    80    40    47 1   
    81    41    42 ar  
    82    41    84 1   
    83    42    85 1   
    84    43    86 1   
    85    43    87 1   
    86    43    88 1   
    87    44    89 1   
    88    44    90 1   
    89    44    91 1   
    90    45    46 ar  
    91    45    50 ar  
    92    45    95 1   
    93    46    47 ar  
    94    46    92 1   
    95    47    48 ar  
    96    48    49 ar  
    97    48    93 1   
    98    49    50 ar  
    99    50    94 1   
@<TRIPOS>SUBSTRUCTURE
     1 4AH         1 TEMP              0 ****  ****    0 ROOT
