@<TRIPOS>MOLECULE
4AH
   95    99     1     0     0
SMALL
No Charge or Current Charge


@<TRIPOS>ATOM
      1 C1          -3.2490    -0.2130    -0.5080 c3         1 4AH       0.119000
      2 C2          -3.1030    -0.4610     1.0360 c          1 4AH       0.577100
      3 O3          -3.2360    -1.5630     1.5590 o          1 4AH      -0.635100
      4 N4          -2.7700     0.6690     1.7590 ns         1 4AH      -0.459900
      5 C5          -2.7580     0.6090     3.2260 c5         1 4AH       0.166000
      6 C6          -2.4330     1.9140     3.9150 ca         1 4AH      -0.106300
      7 C7          -1.4330     2.8410     3.5710 ca         1 4AH      -0.085000
      8 C8          -1.2790     4.0000     4.3560 ca         1 4AH      -0.114000
      9 C9          -2.1200     4.2220     5.4660 ca         1 4AH      -0.106000
     10 C10         -3.1230     3.2880     5.7910 ca         1 4AH      -0.099000
     11 C11         -3.2630     2.1400     4.9960 ca         1 4AH      -0.075300
     12 C12         -4.2800     1.0410     5.1700 c5         1 4AH      -0.070100
     13 C13         -4.2660     0.3930     3.7300 c5         1 4AH       0.143300
     14 O14         -5.2550     1.0210     2.8930 oh         1 4AH      -0.650000
     15 C24         -4.7710    -0.0520    -0.8100 c3         1 4AH      -0.029100
     16 C25         -5.1360     0.1440    -2.2830 ca         1 4AH      -0.077300
     17 C26         -5.6520    -0.9310    -3.0370 ca         1 4AH      -0.100500
     18 C27         -5.9950    -0.7520    -4.3880 ca         1 4AH      -0.115500
     19 C28         -5.8310     0.5040    -4.9960 ca         1 4AH      -0.111000
     20 C29         -5.3260     1.5820    -4.2490 ca         1 4AH      -0.115500
     21 C30         -4.9820     1.4030    -2.8980 ca         1 4AH      -0.100500
     22 O36         -2.5480     0.9970    -0.9030 oh         1 4AH      -0.662000
     23 C41         -2.6040    -1.3850    -1.3150 c3         1 4AH       0.148800
     24 N42         -1.1410    -1.2350    -1.5430 n3         1 4AH      -0.518600
     25 N43         -0.3550    -1.4120    -0.3580 ns         1 4AH      -0.373300
     26 C44         -0.6080    -2.0470    -2.6670 c3         1 4AH       0.214100
     27 C45          0.5030    -0.4190     0.1050 c          1 4AH       0.611100
     28 O46          0.3290     0.7600    -0.1960 o          1 4AH      -0.578100
     29 C47          1.7320    -0.9190     0.9300 c3         1 4AH       0.052700
     30 C48          1.4480    -1.1600     2.4610 c3         1 4AH      -0.048000
     31 C49          1.0060     0.1550     3.1530 c3         1 4AH      -0.091767
     32 C50          0.3320    -2.2230     2.6510 c3         1 4AH      -0.091767
     33 N51          2.8470     0.0350     0.7160 ns         1 4AH      -0.489900
     34 C54          4.1380    -0.3060     0.4380 c          1 4AH       0.639100
     35 O55          4.5700    -1.4450     0.3680 o          1 4AH      -0.554000
     36 O56          4.8580     0.8350     0.2550 os         1 4AH      -0.456100
     37 C78          0.9040    -1.9010    -2.8440 ca         1 4AH      -0.089300
     38 C79          1.7500    -3.0120    -2.6770 ca         1 4AH      -0.090000
     39 C80          3.1430    -2.8680    -2.7880 ca         1 4AH      -0.097500
     40 C81          3.7340    -1.6090    -3.0650 cp         1 4AH      -0.027000
     41 C82          1.4710    -0.6450    -3.1270 ca         1 4AH      -0.090000
     42 C83          2.8650    -0.5000    -3.2310 ca         1 4AH      -0.097500
     43 C91          6.2550     0.7020    -0.0650 c3         1 4AH       0.165900
     44 C92          2.7260    -1.6900     3.1710 c3         1 4AH      -0.091767
     45 C93          7.2120    -0.3700    -4.0560 ca         1 4AH      -0.164000
     46 C94          5.8130    -0.4680    -3.9970 ca         1 4AH      -0.065000
     47 C95          5.2220    -1.4560    -3.1700 cp         1 4AH      -0.085000
     48 C96          6.1110    -2.2960    -2.4430 ca         1 4AH       0.342900
     49 N97          7.4620    -2.2050    -2.5000 nb         1 4AH      -0.669000
     50 C98          7.9960    -1.2540    -3.2970 ca         1 4AH       0.334900
     51 H4          -2.6910     1.5270     1.2270 hn         1 4AH       0.345500
     52 H5          -2.1020    -0.1870     3.6030 h1         1 4AH       0.080700
     53 H7          -0.7890     2.6760     2.7110 ha         1 4AH       0.134000
     54 H8          -0.5090     4.7270     4.1050 ha         1 4AH       0.115000
     55 H9          -1.9980     5.1190     6.0700 ha         1 4AH       0.111000
     56 H10         -3.7800     3.4570     6.6410 ha         1 4AH       0.113000
     57 H121        -5.2690     1.4100     5.4630 hc         1 4AH       0.058700
     58 H122        -3.9580     0.3220     5.9320 hc         1 4AH       0.058700
     59 H13         -4.4890    -0.6810     3.7990 h1         1 4AH       0.055700
     60 H14         -6.1230     0.9010     3.3370 ho         1 4AH       0.441000
     61 H241        -5.2970    -0.9310    -0.4160 hc         1 4AH       0.069200
     62 H242        -5.1530     0.7960    -0.2290 hc         1 4AH       0.069200
     63 H26         -5.7860    -1.9080    -2.5770 ha         1 4AH       0.115000
     64 H27         -6.3890    -1.5870    -4.9640 ha         1 4AH       0.111000
     65 H28         -6.0960     0.6420    -6.0420 ha         1 4AH       0.110000
     66 H29         -5.2000     2.5560    -4.7170 ha         1 4AH       0.111000
     67 H30         -4.5930     2.2430    -2.3280 ha         1 4AH       0.115000
     68 H36         -1.6110     0.6950    -1.0360 ho         1 4AH       0.489000
     69 H411        -3.0910    -1.4210    -2.2960 h1         1 4AH       0.066700
     70 H412        -2.8270    -2.3460    -0.8330 h1         1 4AH       0.066700
     71 H43         -0.1790    -2.3560    -0.0240 hn         1 4AH       0.306500
     72 H441        -0.8460    -3.1060    -2.5010 h1         1 4AH       0.049700
     73 H442        -1.1000    -1.7520    -3.6030 h1         1 4AH       0.049700
     74 H47          2.0220    -1.8780     0.4810 h1         1 4AH       0.082700
     75 H491         0.1040     0.5530     2.6810 hc         1 4AH       0.042033
     76 H492         0.7820    -0.0140     4.2140 hc         1 4AH       0.042033
     77 H493         1.7880     0.9220     3.0950 hc         1 4AH       0.042033
     78 H501         0.5770    -3.1520     2.1230 hc         1 4AH       0.042033
     79 H502         0.1990    -2.4660     3.7130 hc         1 4AH       0.042033
     80 H503        -0.6340    -1.8610     2.2830 hc         1 4AH       0.042033
     81 H51          2.6410     1.0250     0.6980 hn         1 4AH       0.345500
     82 H79          1.3310    -3.9910    -2.4540 ha         1 4AH       0.118000
     83 H80          3.7670    -3.7490    -2.6640 ha         1 4AH       0.118000
     84 H82          0.8290     0.2260    -3.2420 ha         1 4AH       0.118000
     85 H83          3.2710     0.4890    -3.4230 ha         1 4AH       0.118000
     86 H911         6.7200     1.6910    -0.1620 h1         1 4AH       0.050700
     87 H912         6.7870     0.1510     0.7210 h1         1 4AH       0.050700
     88 H913         6.3880     0.1710    -1.0150 h1         1 4AH       0.050700
     89 H921         3.5310    -0.9460     3.1600 hc         1 4AH       0.042033
     90 H922         2.5210    -1.9310     4.2210 hc         1 4AH       0.042033
     91 H923         3.0960    -2.6000     2.6830 hc         1 4AH       0.042033
     92 H94          5.2010     0.2020    -4.5950 ha         1 4AH       0.121000
     93 H96          5.7240    -3.0670    -1.7790 h4         1 4AH       0.026100
     94 H98          9.0830    -1.1990    -3.3280 h4         1 4AH       0.018100
     95 H93          7.6900     0.3750    -4.6850 ha         1 4AH       0.124000
@<TRIPOS>BOND
     1     1     2 1   
     2     1    15 1   
     3     1    22 1   
     4     1    23 1   
     5     2     3 2   
     6     2     4 1   
     7     4     5 1   
     8     4    51 1   
     9     5     6 1   
    10     5    13 1   
    11     5    52 1   
    12     6     7 ar  
    13     6    11 ar  
    14     7     8 ar  
    15     7    53 1   
    16     8     9 ar  
    17     8    54 1   
    18     9    10 ar  
    19     9    55 1   
    20    10    11 ar  
    21    10    56 1   
    22    11    12 1   
    23    12    13 1   
    24    12    57 1   
    25    12    58 1   
    26    13    14 1   
    27    13    59 1   
    28    14    60 1   
    29    15    16 1   
    30    15    61 1   
    31    15    62 1   
    32    16    17 ar  
    33    16    21 ar  
    34    17    18 ar  
    35    17    63 1   
    36    18    19 ar  
    37    18    64 1   
    38    19    20 ar  
    39    19    65 1   
    40    20    21 ar  
    41    20    66 1   
    42    21    67 1   
    43    22    68 1   
    44    23    24 1   
    45    23    69 1   
    46    23    70 1   
    47    24    25 1   
    48    24    26 1   
    49    25    27 1   
    50    25    71 1   
    51    26    37 1   
    52    26    72 1   
    53    26    73 1   
    54    27    28 2   
    55    27    29 1   
    56    29    30 1   
    57    29    33 1   
    58    29    74 1   
    59    30    31 1   
    60    30    32 1   
    61    30    44 1   
    62    31    75 1   
    63    31    76 1   
    64    31    77 1   
    65    32    78 1   
    66    32    79 1   
    67    32    80 1   
    68    33    34 1   
    69    33    81 1   
    70    34    35 2   
    71    34    36 1   
    72    36    43 1   
    73    37    38 ar  
    74    37    41 ar  
    75    38    39 ar  
    76    38    82 1   
    77    39    40 ar  
    78    39    83 1   
    79    40    42 ar  
    80    40    47 1   
    81    41    42 ar  
    82    41    84 1   
    83    42    85 1   
    84    43    86 1   
    85    43    87 1   
    86    43    88 1   
    87    44    89 1   
    88    44    90 1   
    89    44    91 1   
    90    45    46 ar  
    91    45    50 ar  
    92    45    95 1   
    93    46    47 ar  
    94    46    92 1   
    95    47    48 ar  
    96    48    49 ar  
    97    48    93 1   
    98    49    50 ar  
    99    50    94 1   
@<TRIPOS>SUBSTRUCTURE
     1 4AH         1 TEMP              0 ****  ****    0 ROOT
