@<TRIPOS>MOLECULE
4AJ
   29    31     1     0     0
SMALL
No Charge or Current Charge


@<TRIPOS>ATOM
      1 CAH          4.7400    -0.8320    -0.1340 ca         1 4AJ      -0.101000
      2 CAN          6.0000    -0.2110    -0.1340 ca         1 4AJ       0.136100
      3 OAA          7.1290    -0.9730    -0.1960 oh         1 4AJ      -0.526100
      4 CAF          6.0970     1.1870    -0.0700 ca         1 4AJ      -0.185000
      5 CAE          4.9300     1.9650    -0.0060 ca         1 4AJ      -0.076000
      6 CAG          3.6680     1.3470    -0.0060 ca         1 4AJ      -0.115000
      7 CAQ          3.5560    -0.0620    -0.0700 ca         1 4AJ      -0.105500
      8 CAT          2.2390    -0.7170    -0.0710 cc         1 4AJ       0.481500
      9 OAM          1.1160     0.0420    -0.0090 os         1 4AJ      -0.278000
     10 NAK          1.9860    -2.0160    -0.1260 nd         1 4AJ      -0.349000
     11 NAL          0.6190    -2.1370    -0.1000 nd         1 4AJ      -0.354000
     12 CAU          0.1440    -0.9030    -0.0310 cc         1 4AJ       0.483500
     13 CAR         -1.2630    -0.4920     0.0220 ca         1 4AJ      -0.168500
     14 CAI         -2.2920    -1.4610     0.0000 ca         1 4AJ      -0.018500
     15 CAO         -3.6430    -1.0740     0.0500 ca         1 4AJ       0.035500
     16 ClAC        -4.8890    -2.3250     0.0200 cl         1 4AJ      -0.172000
     17 CAS         -3.9880     0.2920     0.1220 ca         1 4AJ       0.187100
     18 OAB         -5.3060     0.6730     0.1710 oh         1 4AJ      -0.500100
     19 CAP         -2.9660     1.2630     0.1440 ca         1 4AJ       0.035500
     20 ClAD        -3.3600     2.9810     0.2340 cl         1 4AJ      -0.172000
     21 CAJ         -1.6160     0.8740     0.0940 ca         1 4AJ      -0.018500
     22 H1           4.6890    -1.9170    -0.1840 ha         1 4AJ       0.155000
     23 H2           7.9070    -0.3760    -0.1860 ho         1 4AJ       0.468000
     24 H3           7.0690     1.6750    -0.0700 ha         1 4AJ       0.118000
     25 H4           5.0020     3.0500     0.0440 ha         1 4AJ       0.119000
     26 H5           2.7770     1.9700     0.0440 ha         1 4AJ       0.128000
     27 H6          -2.0500    -2.5200    -0.0560 ha         1 4AJ       0.152500
     28 H7          -5.3370     1.6530     0.2180 ho         1 4AJ       0.488000
     29 H8          -0.8480     1.6450     0.1130 ha         1 4AJ       0.152500
@<TRIPOS>BOND
     1     1     2 ar  
     2     1     7 ar  
     3     1    22 1   
     4     2     3 1   
     5     2     4 ar  
     6     3    23 1   
     7     4     5 ar  
     8     4    24 1   
     9     5     6 ar  
    10     5    25 1   
    11     6     7 ar  
    12     6    26 1   
    13     7     8 1   
    14     8     9 1   
    15     8    10 2   
    16     9    12 1   
    17    10    11 1   
    18    11    12 2   
    19    12    13 1   
    20    13    14 ar  
    21    13    21 ar  
    22    14    15 ar  
    23    14    27 1   
    24    15    16 1   
    25    15    17 ar  
    26    17    18 1   
    27    17    19 ar  
    28    18    28 1   
    29    19    20 1   
    30    19    21 ar  
    31    21    29 1   
@<TRIPOS>SUBSTRUCTURE
     1 4AJ         1 TEMP              0 ****  ****    0 ROOT
