@<TRIPOS>MOLECULE
4AJ
   29    31     1     0     0
SMALL
abcg2


@<TRIPOS>ATOM
      1 CAH          4.6930    -0.8150    -0.1190 ca         1 4AJ      -0.101000
      2 CAN          5.9460    -0.2140    -0.1220 ca         1 4AJ       0.136100
      3 OAA          7.0210    -1.0200    -0.1680 oh         1 4AJ      -0.526100
      4 CAF          6.0460     1.1770    -0.0780 ca         1 4AJ      -0.185000
      5 CAE          4.8970     1.9490    -0.0320 ca         1 4AJ      -0.076000
      6 CAG          3.6410     1.3640    -0.0270 ca         1 4AJ      -0.115000
      7 CAQ          3.5460    -0.0270    -0.0710 ca         1 4AJ      -0.105500
      8 CAT          2.2520    -0.6880    -0.0700 cc         1 4AJ       0.481500
      9 OAM          1.1270     0.0420    -0.0030 os         1 4AJ      -0.278000
     10 NAK          1.9880    -1.9480    -0.1250 nd         1 4AJ      -0.349000
     11 NAL          0.6300    -2.0710    -0.0950 nd         1 4AJ      -0.354000
     12 CAU          0.1510    -0.8770    -0.0230 cc         1 4AJ       0.483500
     13 CAR         -1.2360    -0.4610     0.0290 ca         1 4AJ      -0.168500
     14 CAI         -2.2380    -1.4290    -0.0110 ca         1 4AJ      -0.018500
     15 CAO         -3.5620    -1.0510     0.0350 ca         1 4AJ       0.035500
     16 CLAC        -4.8030    -2.2440    -0.0140 cl         1 4AJ      -0.172000
     17 CAS         -3.9380     0.2930     0.1220 ca         1 4AJ       0.187100
     18 OAB         -5.2310     0.5880     0.1620 oh         1 4AJ      -0.500100
     19 CAP         -2.9140     1.2420     0.1620 ca         1 4AJ       0.035500
     20 CLAD        -3.3510     2.9110     0.2730 cl         1 4AJ      -0.172000
     21 CAJ         -1.5810     0.8840     0.1160 ca         1 4AJ      -0.018500
     22 H1           4.6150    -1.8940    -0.1540 ha         1 4AJ       0.155000
     23 H2           7.8340    -0.5020    -0.1710 ho         1 4AJ       0.468000
     24 H3           7.0190     1.6550    -0.0800 ha         1 4AJ       0.118000
     25 H4           4.9850     3.0270     0.0000 ha         1 4AJ       0.119000
     26 H5           2.7590     1.9880     0.0090 ha         1 4AJ       0.128000
     27 H6          -1.9840    -2.4780    -0.0820 ha         1 4AJ       0.152500
     28 H7          -5.3770     1.5420     0.2150 ho         1 4AJ       0.488000
     29 H8          -0.8280     1.6590     0.1480 ha         1 4AJ       0.152500
@<TRIPOS>BOND
     1     1     2 ar  
     2     1     7 ar  
     3     1    22 1   
     4     2     3 1   
     5     2     4 ar  
     6     3    23 1   
     7     4     5 ar  
     8     4    24 1   
     9     5     6 ar  
    10     5    25 1   
    11     6     7 ar  
    12     6    26 1   
    13     7     8 1   
    14     8     9 1   
    15     8    10 2   
    16     9    12 1   
    17    10    11 1   
    18    11    12 2   
    19    12    13 1   
    20    13    14 ar  
    21    13    21 ar  
    22    14    15 ar  
    23    14    27 1   
    24    15    16 1   
    25    15    17 ar  
    26    17    18 1   
    27    17    19 ar  
    28    18    28 1   
    29    19    20 1   
    30    19    21 ar  
    31    21    29 1   
@<TRIPOS>SUBSTRUCTURE
     1 4AJ         1 TEMP              0 ****  ****    0 ROOT
