@<TRIPOS>MOLECULE
4AK
   26    25     1     0     0
SMALL
bcc


@<TRIPOS>ATOM
      1 N           -1.0710    -7.5660    -2.7680 n8         1 4AK      -0.861800
      2 CA          -2.1120    -6.5480    -2.6340 c3         1 4AK       0.017500
      3 CB          -1.5130    -5.3290    -1.9380 c3         1 4AK      -0.047400
      4 C           -2.6700    -6.1530    -4.0240 c          1 4AK       0.930600
      5 O           -1.8400    -5.7750    -4.8750 o          1 4AK      -0.837800
      6 O2          -4.1940    -0.0130     1.2770 o          1 4AK      -0.723200
      7 O3          -6.1300    -1.5400     1.1000 o          1 4AK      -0.723200
      8 CG          -2.5050    -4.1990    -1.6990 c3         1 4AK      -0.075400
      9 CD          -1.8890    -3.0410    -0.9220 c3         1 4AK      -0.074400
     10 CE          -2.8120    -1.8410    -0.7690 c3         1 4AK       0.198800
     11 NZ          -3.9780    -2.1730     0.0410 n7         1 4AK      -0.815100
     12 S1          -5.0100    -0.8800     0.4140 s6         1 4AK       1.353700
     13 O4          -5.4030    -0.2240    -0.8470 o          1 4AK      -0.723200
     14 H           -0.7730    -7.8490    -1.8420 hn         1 4AK       0.298300
     15 H2          -1.4630    -8.4000    -3.1880 hn         1 4AK       0.298300
     16 HA          -2.9570    -6.9000    -2.0220 h1         1 4AK       0.002700
     17 HB2         -1.0930    -5.6410    -0.9740 hc         1 4AK       0.017200
     18 HB3         -0.6730    -4.9630    -2.5350 hc         1 4AK       0.017200
     19 HG2         -2.8790    -3.8200    -2.6560 hc         1 4AK       0.051700
     20 HG3         -3.3750    -4.5920    -1.1630 hc         1 4AK       0.051700
     21 HD2         -1.5680    -3.3820     0.0670 hc         1 4AK       0.019700
     22 HD3         -0.9870    -2.7040    -1.4430 hc         1 4AK       0.019700
     23 HE2         -2.2700    -1.0360    -0.2700 h1         1 4AK       0.030700
     24 HE3         -3.0870    -1.4720    -1.7660 h1         1 4AK       0.030700
     25 HZ1         -4.5280    -2.9030    -0.4010 hn         1 4AK       0.380800
     26 OXT         -3.9080    -6.2230    -4.1690 o          1 4AK      -0.837800
@<TRIPOS>BOND
     1     1     2 1   
     2     1    14 1   
     3     1    15 1   
     4     2     3 1   
     5     2     4 1   
     6     2    16 1   
     7     3     8 1   
     8     3    17 1   
     9     3    18 1   
    10     4     5 1   
    11     4    26 1   
    12     6    12 1   
    13     7    12 1   
    14     8     9 1   
    15     8    19 1   
    16     8    20 1   
    17     9    10 1   
    18     9    21 1   
    19     9    22 1   
    20    10    11 1   
    21    10    23 1   
    22    10    24 1   
    23    11    12 1   
    24    11    25 1   
    25    12    13 1   
@<TRIPOS>SUBSTRUCTURE
     1 4AK         1 TEMP              0 ****  ****    0 ROOT
