@<TRIPOS>MOLECULE
4AL
   21    21     1     0     0
SMALL
No Charge or Current Charge


@<TRIPOS>ATOM
      1 C           -2.8670     0.0400    -0.5770 c3         1 4AL       0.208900
      2 N            3.7000    -0.1120    -0.6510 n8         1 4AL      -0.998200
      3 O           -3.6220     0.0050     0.6380 oh         1 4AL      -0.653000
      4 C1          -1.3740     0.0190    -0.2740 ca         1 4AL      -0.088300
      5 C2          -0.6840    -1.2060    -0.1770 ca         1 4AL      -0.092500
      6 C3           0.6950    -1.2250     0.0980 ca         1 4AL      -0.102000
      7 C4           1.4030    -0.0200     0.2780 ca         1 4AL      -0.081300
      8 C5           0.7120     1.2040     0.1810 ca         1 4AL      -0.102000
      9 C6          -0.6670     1.2230    -0.0930 ca         1 4AL      -0.092500
     10 C7           2.8950    -0.0420     0.5830 c3         1 4AL       0.196100
     11 H           -3.1210    -0.8230    -1.2070 h1         1 4AL       0.022700
     12 HA          -3.1080     0.9460    -1.1490 h1         1 4AL       0.022700
     13 HN           3.5170     0.7310    -1.2080 hn         1 4AL       0.396000
     14 HNA          4.6940    -0.0300    -0.4040 hn         1 4AL       0.396000
     15 HO          -4.5700     0.0200     0.3810 ho         1 4AL       0.439000
     16 H2          -1.2180    -2.1440    -0.3130 ha         1 4AL       0.111500
     17 H3           1.2160    -2.1770     0.1690 ha         1 4AL       0.119000
     18 H5           1.2450     2.1430     0.3190 ha         1 4AL       0.119000
     19 H6          -1.1870     2.1760    -0.1640 ha         1 4AL       0.111500
     20 H7           3.1330    -0.9120     1.2110 h1         1 4AL       0.034200
     21 H7A          3.1750     0.8650     1.1370 h1         1 4AL       0.034200
@<TRIPOS>BOND
     1     1     3 1   
     2     1     4 1   
     3     1    11 1   
     4     1    12 1   
     5     2    10 1   
     6     2    13 1   
     7     2    14 1   
     8     3    15 1   
     9     4     5 ar  
    10     4     9 ar  
    11     5     6 ar  
    12     5    16 1   
    13     6     7 ar  
    14     6    17 1   
    15     7     8 ar  
    16     7    10 1   
    17     8     9 ar  
    18     8    18 1   
    19     9    19 1   
    20    10    20 1   
    21    10    21 1   
@<TRIPOS>SUBSTRUCTURE
     1 4AL         1 TEMP              0 ****  ****    0 ROOT
