@<TRIPOS>MOLECULE
4AL
   21    21     1     0     0
SMALL
bcc


@<TRIPOS>ATOM
      1 C           -2.8590     0.0540    -0.5320 c3         1 4AL       0.185700
      2 N            3.6270    -0.6570    -0.3740 n8         1 4AL      -0.887800
      3 O           -3.4810    -0.3870     0.6600 oh         1 4AL      -0.590800
      4 C1          -1.3770     0.1010    -0.3000 ca         1 4AL      -0.088300
      5 C2          -0.6110    -1.0620    -0.3570 ca         1 4AL      -0.110500
      6 C3           0.7520    -1.0320    -0.1090 ca         1 4AL      -0.120000
      7 C4           1.3910     0.1650     0.2140 ca         1 4AL      -0.081300
      8 C5           0.6270     1.3260     0.2680 ca         1 4AL      -0.120000
      9 C6          -0.7400     1.2940     0.0200 ca         1 4AL      -0.110500
     10 C7           2.8670     0.2030     0.5170 c3         1 4AL       0.196100
     11 H           -3.0790    -0.6230    -1.3660 h1         1 4AL       0.022700
     12 HA          -3.2130     1.0500    -0.8250 h1         1 4AL       0.022700
     13 HN           3.6410    -0.2540    -1.3020 hn         1 4AL       0.340800
     14 HNA          4.5910    -0.6870    -0.0670 hn         1 4AL       0.340800
     15 HO          -4.4280    -0.4400     0.4940 ho         1 4AL       0.400000
     16 H2          -1.0850    -2.0030    -0.6120 ha         1 4AL       0.129500
     17 H3           1.3320    -1.9430    -0.1740 ha         1 4AL       0.137000
     18 H5           1.1030     2.2710     0.5040 ha         1 4AL       0.137000
     19 H6          -1.3130     2.2120     0.0640 ha         1 4AL       0.129500
     20 H7           3.0240    -0.1570     1.5380 h1         1 4AL       0.034200
     21 H7A          3.1970     1.2500     0.5160 h1         1 4AL       0.034200
@<TRIPOS>BOND
     1     1     3 1   
     2     1     4 1   
     3     1    11 1   
     4     1    12 1   
     5     2    10 1   
     6     2    13 1   
     7     2    14 1   
     8     3    15 1   
     9     4     5 ar  
    10     4     9 ar  
    11     5     6 ar  
    12     5    16 1   
    13     6     7 ar  
    14     6    17 1   
    15     7     8 ar  
    16     7    10 1   
    17     8     9 ar  
    18     8    18 1   
    19     9    19 1   
    20    10    20 1   
    21    10    21 1   
@<TRIPOS>SUBSTRUCTURE
     1 4AL         1 TEMP              0 ****  ****    0 ROOT
