@<TRIPOS>MOLECULE
4AM
   37    37     1     0     0
SMALL
bcc


@<TRIPOS>ATOM
      1 C1          -3.3360     0.2450    -1.3430 c          1 4AM       0.937800
      2 O1A         -4.5000     0.1010    -0.9280 o          1 4AM      -0.800800
      3 O1B         -2.9710     0.6160    -2.4700 o          1 4AM      -0.800800
      4 C2          -2.2250    -0.0690    -0.3450 ce         1 4AM       0.038900
      5 C3          -2.4490    -0.4850     0.9010 c2         1 4AM      -0.333200
      6 C4          -1.3580    -0.7420     1.8950 c6         1 4AM       0.206700
      7 N4          -1.7280    -0.1980     3.1960 n8         1 4AM      -0.861800
      8 C5          -0.0750    -0.0770     1.3990 c6         1 4AM       0.075700
      9 N5           1.0610    -0.5180     2.1690 ns         1 4AM      -0.577900
     10 C10          1.8850     0.2880     2.8750 c          1 4AM       0.668100
     11 O10          1.7440     1.4980     2.9480 o          1 4AM      -0.583100
     12 C11          3.0000    -0.4490     3.5800 c3         1 4AM      -0.185100
     13 C6           0.1030    -0.4000    -0.0890 c6         1 4AM       0.097100
     14 O6          -0.9800     0.1180    -0.8450 os         1 4AM      -0.296900
     15 C7           1.3700     0.1960    -0.6930 c3         1 4AM       0.134100
     16 O7           1.4060     1.5940    -0.5400 oh         1 4AM      -0.596800
     17 C8           1.5620    -0.2110    -2.1670 c3         1 4AM       0.109100
     18 O8           1.4480    -1.6070    -2.3350 oh         1 4AM      -0.563800
     19 C9           2.8890     0.3100    -2.6970 c3         1 4AM       0.103400
     20 O9           2.9860    -0.0040    -4.0670 oh         1 4AM      -0.583800
     21 H3          -3.4740    -0.6430     1.2090 ha         1 4AM       0.158000
     22 H4          -1.1730    -1.8290     1.9440 h1         1 4AM      -0.007300
     23 HN41        -2.5780    -0.6520     3.5100 hn         1 4AM       0.322800
     24 HN42        -1.0240    -0.4650     3.8740 hn         1 4AM       0.322800
     25 H5          -0.1700     1.0020     1.5300 h1         1 4AM       0.120700
     26 H5N          1.2530    -1.5090     2.1800 hn         1 4AM       0.292500
     27 H111         3.6280     0.2490     4.1280 hc         1 4AM       0.050700
     28 H112         2.5950    -1.1800     4.2800 hc         1 4AM       0.050700
     29 H113         3.6200    -0.9930     2.8660 hc         1 4AM       0.050700
     30 H6           0.1320    -1.4920    -0.2030 h1         1 4AM       0.044700
     31 H7           2.2210    -0.1950    -0.1220 h1         1 4AM       0.047700
     32 H7O          0.6240     1.9640    -0.9660 ho         1 4AM       0.431000
     33 H8           0.7530     0.2250    -2.7630 h1         1 4AM       0.124700
     34 H8O          2.1930    -2.0340    -1.8980 ho         1 4AM       0.377000
     35 H91          2.9450     1.3900    -2.5250 h1         1 4AM       0.020200
     36 H92          3.7080    -0.1470    -2.1190 h1         1 4AM       0.020200
     37 HO9          3.8000     0.3810    -4.4020 ho         1 4AM       0.389000
@<TRIPOS>BOND
     1     1     2 1   
     2     1     3 1   
     3     1     4 1   
     4     4     5 2   
     5     4    14 1   
     6     5     6 1   
     7     5    21 1   
     8     6     7 1   
     9     6     8 1   
    10     6    22 1   
    11     7    23 1   
    12     7    24 1   
    13     8     9 1   
    14     8    13 1   
    15     8    25 1   
    16     9    10 1   
    17     9    26 1   
    18    10    11 2   
    19    10    12 1   
    20    12    27 1   
    21    12    28 1   
    22    12    29 1   
    23    13    14 1   
    24    13    15 1   
    25    13    30 1   
    26    15    16 1   
    27    15    17 1   
    28    15    31 1   
    29    16    32 1   
    30    17    18 1   
    31    17    19 1   
    32    17    33 1   
    33    18    34 1   
    34    19    20 1   
    35    19    35 1   
    36    19    36 1   
    37    20    37 1   
@<TRIPOS>SUBSTRUCTURE
     1 4AM         1 TEMP              0 ****  ****    0 ROOT
