@<TRIPOS>MOLECULE
4AM
   37    37     1     0     0
SMALL
No Charge or Current Charge


@<TRIPOS>ATOM
      1 C1          -3.5170     0.3390    -1.2940 c          1 4AM       0.727200
      2 O1A         -4.6750     0.2140    -0.9100 o          1 4AM      -0.695500
      3 O1B         -3.2420     0.7210    -2.4270 o          1 4AM      -0.695500
      4 C2          -2.3730     0.0100    -0.3240 ce         1 4AM       0.038900
      5 C3          -2.5820    -0.4120     0.9520 c2         1 4AM      -0.383200
      6 C4          -1.4580    -0.7220     1.9010 c6         1 4AM       0.206700
      7 N4          -1.8530    -0.3370     3.2570 n8         1 4AM      -0.972200
      8 C5          -0.1350    -0.0330     1.4600 c6         1 4AM       0.075700
      9 N5           1.0030    -0.5220     2.2780 ns         1 4AM      -0.510900
     10 C10          2.0340     0.2450     2.7690 c          1 4AM       0.601100
     11 O10          2.0960     1.4540     2.6040 o          1 4AM      -0.583100
     12 C11          3.0920    -0.5320     3.5420 c3         1 4AM      -0.185100
     13 C6           0.0550    -0.3200    -0.0600 c6         1 4AM       0.120300
     14 O6          -1.0820     0.1630    -0.8270 os         1 4AM      -0.320100
     15 C7           1.3290     0.3430    -0.6920 c3         1 4AM       0.157300
     16 O7           1.1150     1.7610    -0.8610 oh         1 4AM      -0.719000
     17 C8           1.7400    -0.2890    -2.0610 c3         1 4AM       0.132300
     18 O8           2.0180    -1.6930    -1.9070 oh         1 4AM      -0.626000
     19 C9           3.0000     0.3700    -2.6850 c3         1 4AM       0.126600
     20 O9           3.4000    -0.3490    -3.8680 oh         1 4AM      -0.706000
     21 H3          -3.5950    -0.5360     1.3360 ha         1 4AM       0.208000
     22 H4          -1.3040    -1.8100     1.9160 h1         1 4AM      -0.007300
     23 HN41        -2.6110    -0.9570     3.5610 hn         1 4AM       0.378000
     24 HN42        -1.0790    -0.5640     3.8890 hn         1 4AM       0.378000
     25 H5          -0.2420     1.0530     1.5980 h1         1 4AM       0.120700
     26 H5N          1.0490    -1.5130     2.4820 hn         1 4AM       0.292500
     27 H111         3.8960     0.1090     3.9220 hc         1 4AM       0.050700
     28 H112         2.6070    -1.0930     4.3480 hc         1 4AM       0.050700
     29 H113         3.4820    -1.3340     2.9040 hc         1 4AM       0.050700
     30 H6           0.1160    -1.4100    -0.1880 h1         1 4AM       0.044700
     31 H7           2.1720     0.1800    -0.0070 h1         1 4AM       0.047700
     32 H7O          0.1550     1.8590    -1.0650 ho         1 4AM       0.530000
     33 H8           0.9060    -0.1450    -2.7640 h1         1 4AM       0.124700
     34 H8O          2.6170    -1.9020    -2.6610 ho         1 4AM       0.416000
     35 H91          2.7780     1.4150    -2.9380 h1         1 4AM       0.020200
     36 H92          3.8140     0.3710    -1.9480 h1         1 4AM       0.020200
     37 HO9          4.1570     0.1430    -4.2640 ho         1 4AM       0.488000
@<TRIPOS>BOND
     1     1     2 1   
     2     1     3 1   
     3     1     4 1   
     4     4     5 2   
     5     4    14 1   
     6     5     6 1   
     7     5    21 1   
     8     6     7 1   
     9     6     8 1   
    10     6    22 1   
    11     7    23 1   
    12     7    24 1   
    13     8     9 1   
    14     8    13 1   
    15     8    25 1   
    16     9    10 1   
    17     9    26 1   
    18    10    11 2   
    19    10    12 1   
    20    12    27 1   
    21    12    28 1   
    22    12    29 1   
    23    13    14 1   
    24    13    15 1   
    25    13    30 1   
    26    15    16 1   
    27    15    17 1   
    28    15    31 1   
    29    16    32 1   
    30    17    18 1   
    31    17    19 1   
    32    17    33 1   
    33    18    34 1   
    34    19    20 1   
    35    19    35 1   
    36    19    36 1   
    37    20    37 1   
@<TRIPOS>SUBSTRUCTURE
     1 4AM         1 TEMP              0 ****  ****    0 ROOT
