@<TRIPOS>MOLECULE
4AN
   24    26     1     0     0
SMALL
bcc


@<TRIPOS>ATOM
      1 C1A          1.5630     0.0140    -1.6610 c          1 4AN       0.749100
      2 O1A          2.7030     0.0170    -2.0940 o          1 4AN      -0.615500
      3 C1           1.2120     0.0110    -0.2520 ca         1 4AN      -0.251600
      4 C2           2.2000     0.0130     0.7190 ca         1 4AN       0.035000
      5 C3           1.8960     0.0100     2.0670 ca         1 4AN      -0.283000
      6 C4           0.5690     0.0040     2.5080 ca         1 4AN       0.274600
      7 N4           0.2980     0.0020     3.8180 nv         1 4AN      -0.863200
      8 C5          -1.8450     0.0050     1.8820 ca         1 4AN      -0.066000
      9 C6          -2.8360     0.0040     0.9300 ca         1 4AN      -0.169000
     10 C7          -2.4990     0.0040    -0.4260 ca         1 4AN      -0.023000
     11 C8          -1.1780     0.0060    -0.8130 ca         1 4AN      -0.180600
     12 C8A         -0.8430     0.0080    -2.2460 c          1 4AN       0.736100
     13 O8A         -1.6750     0.0050    -3.1330 o          1 4AN      -0.611500
     14 N9           0.4970     0.0130    -2.5440 ns         1 4AN      -0.601500
     15 C9          -0.1420     0.0070     0.1500 ca         1 4AN       0.080000
     16 C10         -0.4840     0.0050     1.5260 ca         1 4AN      -0.126000
     17 H2           3.2400     0.0160     0.4200 ha         1 4AN       0.153000
     18 H3           2.6940     0.0100     2.7980 ha         1 4AN       0.137000
     19 HN41         1.0440    -0.0160     4.4910 hn         1 4AN       0.438300
     20 HN42        -0.6330    -0.0350     4.1890 hn         1 4AN       0.438300
     21 H5          -2.1460     0.0070     2.9210 ha         1 4AN       0.120000
     22 H6          -3.8750     0.0040     1.2280 ha         1 4AN       0.141000
     23 H7          -3.2800     0.0040    -1.1740 ha         1 4AN       0.158000
     24 HN9          0.7340     0.0140    -3.5290 hn         1 4AN       0.330500
@<TRIPOS>BOND
     1     1     2 2   
     2     1     3 1   
     3     1    14 1   
     4     3     4 ar  
     5     3    15 ar  
     6     4     5 ar  
     7     4    17 1   
     8     5     6 ar  
     9     5    18 1   
    10     6     7 1   
    11     6    16 ar  
    12     7    19 1   
    13     7    20 1   
    14     8     9 ar  
    15     8    16 ar  
    16     8    21 1   
    17     9    10 ar  
    18     9    22 1   
    19    10    11 ar  
    20    10    23 1   
    21    11    12 1   
    22    11    15 ar  
    23    12    13 2   
    24    12    14 1   
    25    14    24 1   
    26    15    16 ar  
@<TRIPOS>SUBSTRUCTURE
     1 4AN         1 TEMP              0 ****  ****    0 ROOT
