@<TRIPOS>MOLECULE
4AN
   24    26     1     0     0
SMALL
No Charge or Current Charge


@<TRIPOS>ATOM
      1 C1A          1.5540     0.0040    -1.7000 c          1 4AN       0.606600
      2 O1A          2.7050     0.0040    -2.1050 o          1 4AN      -0.540000
      3 C1           1.1970     0.0200    -0.2440 ca         1 4AN      -0.251600
      4 C2           2.2150     0.0370     0.7260 ca         1 4AN       0.053000
      5 C3           1.8860     0.0500     2.0880 ca         1 4AN      -0.265000
      6 C4           0.5510     0.0470     2.4980 ca         1 4AN       0.413000
      7 N4           0.3090     0.0530     3.8450 nv         1 4AN      -1.112000
      8 C5          -1.8520     0.0400     1.9130 ca         1 4AN      -0.048000
      9 C6          -2.8580     0.0260     0.9350 ca         1 4AN      -0.151000
     10 C7          -2.5230     0.0080    -0.4260 ca         1 4AN      -0.005000
     11 C8          -1.1710     0.0060    -0.8210 ca         1 4AN      -0.180600
     12 C8A         -0.8140    -0.0110    -2.2790 c          1 4AN       0.593600
     13 O8A         -1.6470    -0.0250    -3.1710 o          1 4AN      -0.536000
     14 N9           0.5120    -0.0100    -2.5680 ns         1 4AN      -0.467500
     15 C9          -0.1550     0.0200     0.1590 ca         1 4AN       0.080000
     16 C10         -0.4880     0.0350     1.5360 ca         1 4AN      -0.126000
     17 H2           3.2630     0.0390     0.4300 ha         1 4AN       0.135000
     18 H3           2.6840     0.0620     2.8260 ha         1 4AN       0.119000
     19 HN41         1.0850    -0.1370     4.4770 hn         1 4AN       0.493500
     20 HN42        -0.6160    -0.1990     4.1820 hn         1 4AN       0.493500
     21 H5          -2.1490     0.0590     2.9580 ha         1 4AN       0.102000
     22 H6          -3.9040     0.0300     1.2350 ha         1 4AN       0.123000
     23 H7          -3.3180    -0.0030    -1.1700 ha         1 4AN       0.140000
     24 HN9          0.7510    -0.0210    -3.5470 hn         1 4AN       0.330500
@<TRIPOS>BOND
     1     1     2 2   
     2     1     3 1   
     3     1    14 1   
     4     3     4 ar  
     5     3    15 ar  
     6     4     5 ar  
     7     4    17 1   
     8     5     6 ar  
     9     5    18 1   
    10     6     7 1   
    11     6    16 ar  
    12     7    19 1   
    13     7    20 1   
    14     8     9 ar  
    15     8    16 ar  
    16     8    21 1   
    17     9    10 ar  
    18     9    22 1   
    19    10    11 ar  
    20    10    23 1   
    21    11    12 1   
    22    11    15 ar  
    23    12    13 2   
    24    12    14 1   
    25    14    24 1   
    26    15    16 ar  
@<TRIPOS>SUBSTRUCTURE
     1 4AN         1 TEMP              0 ****  ****    0 ROOT
