@<TRIPOS>MOLECULE
4AO
   33    34     1     0     0
SMALL
No Charge or Current Charge


@<TRIPOS>ATOM
      1 C4           2.6870    -0.8930    -0.0110 ca         1 4AO      -0.046000
      2 C5           3.7510    -0.0560    -0.3750 ca         1 4AO      -0.144000
      3 C6           3.5250     1.3080    -0.6090 ca         1 4AO      -0.082000
      4 N1          -0.9480    -0.6480     0.6070 nb         1 4AO      -0.398000
      5 C7           2.2310     1.8510    -0.4810 ca         1 4AO      -0.073300
      6 C8           1.1490     1.0140    -0.1130 ca         1 4AO       0.083000
      7 C9          -1.0900     0.6630     0.3670 ca         1 4AO       0.440000
      8 C10         -3.0460     1.4710    -0.5070 c2         1 4AO       0.925100
      9 C11          2.0170     3.3400    -0.7420 c3         1 4AO      -0.033800
     10 N3          -4.0930     2.0580    -0.0750 nv         1 4AO      -1.078700
     11 N4          -3.6450     0.4300    -0.9170 nv         1 4AO      -1.078700
     12 C2           0.2880    -1.1680     0.4870 ca         1 4AO       0.408300
     13 O            0.4950    -2.5130     0.7210 os         1 4AO      -0.465300
     14 N           -0.1010     1.5070     0.0180 nb         1 4AO      -0.216000
     15 C3           1.3870    -0.3610     0.1210 ca         1 4AO      -0.187000
     16 H1           2.8790    -1.9490     0.1670 ha         1 4AO       0.122000
     17 H2           4.7530    -0.4670    -0.4770 ha         1 4AO       0.113000
     18 H3           4.3610     1.9450    -0.8910 ha         1 4AO       0.110000
     19 H5           1.3070     3.4980    -1.5630 hc         1 4AO       0.045700
     20 H6           1.6190     3.8420     0.1480 hc         1 4AO       0.045700
     21 H7           2.9510     3.8470    -1.0140 hc         1 4AO       0.045700
     22 H8          -3.8980     2.1180     0.9140 hn         1 4AO       0.501250
     23 H9          -4.1400     2.9880    -0.4700 hn         1 4AO       0.501250
     24 H10         -4.6180     0.6250    -0.7640 hn         1 4AO       0.501250
     25 C1          -0.5880    -3.3820     1.1010 c3         1 4AO       0.173600
     26 C12         -0.0070    -4.7930     1.2800 c3         1 4AO      -0.099100
     27 H4          -3.3130    -0.2760    -0.2830 hn         1 4AO       0.501250
     28 H13         -1.0430    -3.0510     2.0440 h1         1 4AO       0.042200
     29 H14         -1.3650    -3.4020     0.3250 h1         1 4AO       0.042200
     30 H15          0.4400    -5.1490     0.3440 hc         1 4AO       0.048367
     31 H16          0.7620    -4.7980     2.0610 hc         1 4AO       0.048367
     32 H17         -0.7980    -5.4940     1.5710 hc         1 4AO       0.048367
     33 N2          -2.3790     1.1830     0.5030 ne         1 4AO      -0.846700
@<TRIPOS>BOND
     1     1     2 ar  
     2     1    15 ar  
     3     1    16 1   
     4     2     3 ar  
     5     2    17 1   
     6     3     5 ar  
     7     3    18 1   
     8     4     7 ar  
     9     4    12 ar  
    10     5     6 ar  
    11     5     9 1   
    12     6    14 ar  
    13     6    15 ar  
    14     7    14 ar  
    15     7    33 1   
    16     8    10 1   
    17     8    11 1   
    18     8    33 2   
    19     9    19 1   
    20     9    20 1   
    21     9    21 1   
    22    10    22 1   
    23    10    23 1   
    24    11    24 1   
    25    11    27 1   
    26    12    13 1   
    27    12    15 ar  
    28    13    25 1   
    29    25    26 1   
    30    25    28 1   
    31    25    29 1   
    32    26    30 1   
    33    26    31 1   
    34    26    32 1   
@<TRIPOS>SUBSTRUCTURE
     1 4AO         1 TEMP              0 ****  ****    0 ROOT
