@<TRIPOS>MOLECULE
4AO
   33    34     1     0     0
SMALL
abcg2


@<TRIPOS>ATOM
      1 C4           2.8260    -0.7080     0.0600 ca         1 4AO      -0.046000
      2 C5           3.8850     0.1570    -0.0310 ca         1 4AO      -0.144000
      3 C6           3.6540     1.5420    -0.1360 ca         1 4AO      -0.082000
      4 N1          -0.8550    -0.4740     0.1390 nb         1 4AO      -0.398000
      5 C7           2.3890     2.0780    -0.1500 ca         1 4AO      -0.073300
      6 C8           1.2770     1.1940    -0.0560 ca         1 4AO       0.083000
      7 C9          -0.9920     0.8840     0.0250 ca         1 4AO       0.440000
      8 C10         -3.3570     0.8170     0.0970 c2         1 4AO       0.925100
      9 C11          2.1580     3.5530    -0.2580 c3         1 4AO      -0.033800
     10 N3          -3.5350    -0.5020     0.2280 nv         1 4AO      -1.078700
     11 N4          -4.4710     1.5730     0.0160 nv         1 4AO      -1.078700
     12 C2           0.3380    -0.9860     0.1460 ca         1 4AO       0.408300
     13 O            0.5070    -2.2910     0.2480 os         1 4AO      -0.465300
     14 N            0.0330     1.7110    -0.0690 nb         1 4AO      -0.216000
     15 C3           1.5180    -0.1920     0.0490 ca         1 4AO      -0.187000
     16 H1           2.9930    -1.7740     0.1410 ha         1 4AO       0.122000
     17 H2           4.9000    -0.2170    -0.0220 ha         1 4AO       0.113000
     18 H3           4.5060     2.2080    -0.2070 ha         1 4AO       0.110000
     19 H5           1.5710     3.8020    -1.1430 hc         1 4AO       0.045700
     20 H6           1.6020     3.9330     0.6010 hc         1 4AO       0.045700
     21 H7           3.1020     4.0930    -0.3160 hc         1 4AO       0.045700
     22 H8          -2.7150    -1.0840     0.2960 hn         1 4AO       0.501250
     23 H9          -4.4500    -0.9010     0.3410 hn         1 4AO       0.501250
     24 H10         -4.3580     2.5690     0.0830 hn         1 4AO       0.501250
     25 C1          -0.6410    -3.1380     0.3820 c3         1 4AO       0.173600
     26 C12         -0.1520    -4.5630     0.4680 c3         1 4AO      -0.099100
     27 H4          -5.3680     1.2010     0.2750 hn         1 4AO       0.501250
     28 H13         -1.1960    -2.8600     1.2800 h1         1 4AO       0.042200
     29 H14         -1.3020    -3.0040    -0.4780 h1         1 4AO       0.042200
     30 H15          0.3790    -4.8600    -0.4360 hc         1 4AO       0.048367
     31 H16          0.5060    -4.7100     1.3250 hc         1 4AO       0.048367
     32 H17         -1.0090    -5.2250     0.5860 hc         1 4AO       0.048367
     33 N2          -2.2120     1.4620     0.0040 ne         1 4AO      -0.846700
@<TRIPOS>BOND
     1     1     2 ar  
     2     1    15 ar  
     3     1    16 1   
     4     2     3 ar  
     5     2    17 1   
     6     3     5 ar  
     7     3    18 1   
     8     4     7 ar  
     9     4    12 ar  
    10     5     6 ar  
    11     5     9 1   
    12     6    14 ar  
    13     6    15 ar  
    14     7    14 ar  
    15     7    33 1   
    16     8    10 1   
    17     8    11 1   
    18     8    33 2   
    19     9    19 1   
    20     9    20 1   
    21     9    21 1   
    22    10    22 1   
    23    10    23 1   
    24    11    24 1   
    25    11    27 1   
    26    12    13 1   
    27    12    15 ar  
    28    13    25 1   
    29    25    26 1   
    30    25    28 1   
    31    25    29 1   
    32    26    30 1   
    33    26    31 1   
    34    26    32 1   
@<TRIPOS>SUBSTRUCTURE
     1 4AO         1 TEMP              0 ****  ****    0 ROOT
