@<TRIPOS>MOLECULE
4AP
   14    14     1     0     0
SMALL
abcg2


@<TRIPOS>ATOM
      1 N1          -1.7560     0.0020    -0.0140 na         1 4AP      -0.145700
      2 C2          -1.0970    -1.1700    -0.0100 ca         1 4AP      -0.003500
      3 C3           0.2620    -1.2070     0.0020 ca         1 4AP      -0.229500
      4 C4           0.9980     0.0040     0.0100 ca         1 4AP       0.449000
      5 C5           0.2600     1.2130     0.0060 ca         1 4AP      -0.229500
      6 C6          -1.0990     1.1750    -0.0060 ca         1 4AP       0.047200
      7 N4           2.3220     0.0050     0.0200 nv         1 4AP      -1.036000
      8 HN1         -2.7650     0.0010    -0.0250 hn         1 4AP       0.389000
      9 H2          -1.7030    -2.0630    -0.0170 h4         1 4AP       0.181000
     10 H3           0.7680    -2.1610     0.0060 ha         1 4AP       0.170500
     11 H5           0.7650     2.1690     0.0120 ha         1 4AP       0.170500
     12 H6          -1.7070     2.0660    -0.0100 h4         1 4AP       0.181000
     13 HN41         2.8460     0.8650     0.0220 hn         1 4AP       0.528000
     14 HN42         2.8470    -0.8530     0.0180 hn         1 4AP       0.528000
@<TRIPOS>BOND
     1     1     2 1   
     2     1     6 2   
     3     1     8 1   
     4     2     3 ar  
     5     2     9 1   
     6     3     4 ar  
     7     3    10 1   
     8     4     5 ar  
     9     4     7 1   
    10     5     6 ar  
    11     5    11 1   
    12     6    12 1   
    13     7    13 1   
    14     7    14 1   
@<TRIPOS>SUBSTRUCTURE
     1 4AP         1 TEMP              0 ****  ****    0 ROOT
