@<TRIPOS>MOLECULE
4AP
   14    14     1     0     0
SMALL
No Charge or Current Charge


@<TRIPOS>ATOM
      1 N1          -1.8400     0.0020    -0.0390 na         1 4AP      -0.145700
      2 C2          -1.1190    -1.1980    -0.0120 ca         1 4AP      -0.003500
      3 C3           0.2880    -1.2030     0.0390 ca         1 4AP      -0.229500
      4 C4           0.9910     0.0040     0.0650 ca         1 4AP       0.449000
      5 C5           0.2860     1.2100     0.0430 ca         1 4AP      -0.229500
      6 C6          -1.1210     1.2010    -0.0080 ca         1 4AP       0.047200
      7 N4           2.3510     0.0050     0.1140 nv         1 4AP      -1.036000
      8 HN1         -2.8550     0.0030    -0.0780 hn         1 4AP       0.389000
      9 H2          -1.6910    -2.1290    -0.0320 h4         1 4AP       0.181000
     10 H3           0.8240    -2.1480     0.0610 ha         1 4AP       0.170500
     11 H5           0.8190     2.1550     0.0680 ha         1 4AP       0.170500
     12 H6          -1.6930     2.1320    -0.0250 h4         1 4AP       0.181000
     13 HN41         2.8490     0.8680    -0.0900 hn         1 4AP       0.528000
     14 HN42         2.8540    -0.8560    -0.0910 hn         1 4AP       0.528000
@<TRIPOS>BOND
     1     1     2 1   
     2     1     6 2   
     3     1     8 1   
     4     2     3 ar  
     5     2     9 1   
     6     3     4 ar  
     7     3    10 1   
     8     4     5 ar  
     9     4     7 1   
    10     5     6 ar  
    11     5    11 1   
    12     6    12 1   
    13     7    13 1   
    14     7    14 1   
@<TRIPOS>SUBSTRUCTURE
     1 4AP         1 TEMP              0 ****  ****    0 ROOT
