@<TRIPOS>MOLECULE
4AQ
   38    40     1     0     0
SMALL
abcg2


@<TRIPOS>ATOM
      1 C4           3.8690    -0.6130    -0.4640 cc         1 4AQ      -0.183300
      2 C5           2.4650    -0.4350    -0.9270 c3         1 4AQ       0.231100
      3 C6           0.2350     0.2460    -0.2810 c3         1 4AQ       0.157800
      4 N1           1.6030     0.0320     0.1460 n7         1 4AQ      -0.874400
      5 C7          -0.6160     0.7890     0.8640 c3         1 4AQ      -0.001200
      6 C8          -2.0430     0.9820     0.4720 cc         1 4AQ      -0.141400
      7 N2          -3.9780     1.9280    -0.1570 na         1 4AQ      -0.224700
      8 C9          -2.6770     2.1600     0.1980 cd         1 4AQ      -0.156100
      9 C10         -4.2220     0.5880    -0.1220 ca         1 4AQ      -0.046200
     10 C11         -3.0220    -0.0470     0.2710 ca         1 4AQ      -0.097800
     11 C12         -2.9990    -1.4420     0.3950 ca         1 4AQ      -0.061000
     12 C13         -4.1490    -2.1570     0.1250 ca         1 4AQ      -0.142000
     13 C14         -5.3310    -1.5060    -0.2680 ca         1 4AQ      -0.091000
     14 C15         -5.3850    -0.1310    -0.3960 ca         1 4AQ      -0.129000
     15 C            4.2690     1.8260    -0.0860 c3         1 4AQ       0.058900
     16 N            4.6600     0.4350    -0.0820 na         1 4AQ       0.044000
     17 C3           4.6000    -1.7680    -0.3050 cd         1 4AQ      -0.173000
     18 C2           5.8770    -1.4020     0.1870 cd         1 4AQ      -0.184000
     19 C1           5.8750    -0.0350     0.3130 cc         1 4AQ      -0.196000
     20 H1           2.4190     0.3020    -1.7370 h1         1 4AQ       0.039200
     21 H2           2.1310    -1.3860    -1.3660 h1         1 4AQ       0.039200
     22 H3           0.2390     0.9760    -1.0960 h1         1 4AQ       0.032700
     23 H4          -0.2320    -0.6660    -0.6870 h1         1 4AQ       0.032700
     24 H5           1.6140    -0.6570     0.8900 hn         1 4AQ       0.414000
     25 H7          -0.5590     0.0970     1.7120 hc         1 4AQ       0.048700
     26 H8          -0.1870     1.7350     1.2040 hc         1 4AQ       0.048700
     27 H9          -4.6460     2.6410    -0.3980 hn         1 4AQ       0.350000
     28 H10         -2.2920     3.1680     0.2330 h4         1 4AQ       0.211000
     29 H11         -2.0930    -1.9530     0.6970 ha         1 4AQ       0.112000
     30 H12         -4.1450    -3.2360     0.2150 ha         1 4AQ       0.110000
     31 H13         -6.2160    -2.0940    -0.4770 ha         1 4AQ       0.110000
     32 H14         -6.2980     0.3670    -0.7000 ha         1 4AQ       0.112000
     33 H15          3.4700     2.0090     0.6290 h1         1 4AQ       0.051033
     34 H16          5.1290     2.4370     0.1730 h1         1 4AQ       0.051033
     35 H17          3.9210     2.1270    -1.0740 h1         1 4AQ       0.051033
     36 H18          4.2450    -2.7640    -0.5240 ha         1 4AQ       0.126000
     37 H19          6.7000    -2.0590     0.4210 ha         1 4AQ       0.130000
     38 H20          6.6470     0.6400     0.6490 h4         1 4AQ       0.141000
@<TRIPOS>BOND
     1     1     2 1   
     2     1    16 1   
     3     1    17 2   
     4     2     4 1   
     5     2    20 1   
     6     2    21 1   
     7     3     4 1   
     8     3     5 1   
     9     3    22 1   
    10     3    23 1   
    11     4    24 1   
    12     5     6 1   
    13     5    25 1   
    14     5    26 1   
    15     6     8 2   
    16     6    10 1   
    17     7     8 1   
    18     7     9 1   
    19     7    27 1   
    20     8    28 1   
    21     9    10 ar  
    22     9    14 ar  
    23    10    11 ar  
    24    11    12 ar  
    25    11    29 1   
    26    12    13 ar  
    27    12    30 1   
    28    13    14 ar  
    29    13    31 1   
    30    14    32 1   
    31    15    16 1   
    32    15    33 1   
    33    15    34 1   
    34    15    35 1   
    35    16    19 1   
    36    17    18 1   
    37    17    36 1   
    38    18    19 2   
    39    18    37 1   
    40    19    38 1   
@<TRIPOS>SUBSTRUCTURE
     1 4AQ         1 TEMP              0 ****  ****    0 ROOT
