@<TRIPOS>MOLECULE
4AQ
   38    40     1     0     0
SMALL
No Charge or Current Charge


@<TRIPOS>ATOM
      1 C4           3.8600    -0.5650    -0.4050 cc         1 4AQ      -0.183300
      2 C5           2.4780    -0.3580    -0.9640 c3         1 4AQ       0.231100
      3 C6           0.1710     0.2770    -0.2900 c3         1 4AQ       0.157800
      4 N1           1.5800     0.0940     0.1090 n7         1 4AQ      -0.874400
      5 C7          -0.6800     0.7670     0.9020 c3         1 4AQ      -0.001200
      6 C8          -2.1290     0.9720     0.5420 cc         1 4AQ      -0.141400
      7 N2          -4.1500     1.9410     0.0410 na         1 4AQ      -0.224700
      8 C9          -2.8020     2.1830     0.4040 cd         1 4AQ      -0.156100
      9 C10         -4.2810     0.5670    -0.0360 ca         1 4AQ      -0.046200
     10 C11         -3.0980    -0.0500     0.2570 ca         1 4AQ      -0.097800
     11 C12         -2.9710    -1.4470     0.2570 ca         1 4AQ      -0.061000
     12 C13         -4.1110    -2.2140    -0.0650 ca         1 4AQ      -0.142000
     13 C14         -5.3370    -1.5770    -0.3720 ca         1 4AQ      -0.091000
     14 C15         -5.4300    -0.1690    -0.3580 ca         1 4AQ      -0.129000
     15 C            4.5680     1.8860    -0.3930 c3         1 4AQ       0.058900
     16 N            4.7930     0.4510    -0.1580 na         1 4AQ       0.044000
     17 C3           4.4760    -1.7340    -0.0440 cd         1 4AQ      -0.173000
     18 C2           5.7720    -1.4450     0.4180 cd         1 4AQ      -0.184000
     19 C1           5.9760    -0.0950     0.3500 cc         1 4AQ      -0.196000
     20 H1           2.5170     0.3800    -1.7770 h1         1 4AQ       0.039200
     21 H2           2.1220    -1.3060    -1.3920 h1         1 4AQ       0.039200
     22 H3           0.0980     1.0150    -1.1010 h1         1 4AQ       0.032700
     23 H4          -0.2460    -0.6680    -0.6640 h1         1 4AQ       0.032700
     24 H5           1.6170    -0.6140     0.8510 hn         1 4AQ       0.414000
     25 H7          -0.6090     0.0400     1.7200 hc         1 4AQ       0.048700
     26 H8          -0.2580     1.7060     1.2800 hc         1 4AQ       0.048700
     27 H9          -4.8730     2.6340    -0.1290 hn         1 4AQ       0.350000
     28 H10         -2.4200     3.1930     0.5320 h4         1 4AQ       0.211000
     29 H11         -2.0250    -1.9270     0.4980 ha         1 4AQ       0.112000
     30 H12         -4.0470    -3.3000    -0.0750 ha         1 4AQ       0.110000
     31 H13         -6.2110    -2.1760    -0.6180 ha         1 4AQ       0.110000
     32 H14         -6.3690     0.3290    -0.5910 ha         1 4AQ       0.112000
     33 H15          3.6940     2.2180     0.1810 h1         1 4AQ       0.051033
     34 H16          5.4470     2.4580    -0.0750 h1         1 4AQ       0.051033
     35 H17          4.3900     2.0580    -1.4610 h1         1 4AQ       0.051033
     36 H18          4.0330    -2.7240    -0.1080 ha         1 4AQ       0.126000
     37 H19          6.4960    -2.1740     0.7720 ha         1 4AQ       0.130000
     38 H20          6.8360     0.5100     0.6120 h4         1 4AQ       0.141000
@<TRIPOS>BOND
     1     1     2 1   
     2     1    16 1   
     3     1    17 2   
     4     2     4 1   
     5     2    20 1   
     6     2    21 1   
     7     3     4 1   
     8     3     5 1   
     9     3    22 1   
    10     3    23 1   
    11     4    24 1   
    12     5     6 1   
    13     5    25 1   
    14     5    26 1   
    15     6     8 2   
    16     6    10 1   
    17     7     8 1   
    18     7     9 1   
    19     7    27 1   
    20     8    28 1   
    21     9    10 ar  
    22     9    14 ar  
    23    10    11 ar  
    24    11    12 ar  
    25    11    29 1   
    26    12    13 ar  
    27    12    30 1   
    28    13    14 ar  
    29    13    31 1   
    30    14    32 1   
    31    15    16 1   
    32    15    33 1   
    33    15    34 1   
    34    15    35 1   
    35    16    19 1   
    36    17    18 1   
    37    17    36 1   
    38    18    19 2   
    39    18    37 1   
    40    19    38 1   
@<TRIPOS>SUBSTRUCTURE
     1 4AQ         1 TEMP              0 ****  ****    0 ROOT
