@<TRIPOS>MOLECULE
4AR
   48    48     1     0     0
SMALL
abcg2


@<TRIPOS>ATOM
      1 N1          -2.0480     2.8510    -1.3290 n8         1 4AR      -0.976200
      2 C1          -1.6390     1.7860    -0.4380 c3         1 4AR       0.066500
      3 C2          -0.1860     1.4380    -0.7070 c          1 4AR       0.569100
      4 O1           0.2930     1.4720    -1.8120 o          1 4AR      -0.453100
      5 C3          -2.4560     0.4830    -0.5320 c3         1 4AR      -0.117400
      6 C4          -3.9150     0.6860    -0.1500 c3         1 4AR      -0.095400
      7 C5          -4.6850    -0.6210    -0.2270 c3         1 4AR       0.060600
      8 N2          -6.0750    -0.4040     0.1350 nu         1 4AR      -0.894000
      9 C6          -6.9730    -1.3690     0.2770 cz         1 4AR       0.937600
     10 N3          -6.6300    -2.6370     0.1020 nv         1 4AR      -0.610300
     11 N4          -8.2230    -1.0640     0.6000 nv         1 4AR      -0.610300
     12 C7           0.6050     1.0290     0.5090 c3         1 4AR       0.057600
     13 O2           1.8890     0.6100     0.0910 os         1 4AR      -0.413100
     14 C8           2.7210     0.1380     1.0120 c          1 4AR       0.611700
     15 C9           4.0070    -0.3130     0.4100 ca         1 4AR      -0.133600
     16 C10          4.0050    -1.3060    -0.5780 ca         1 4AR      -0.022300
     17 C11          5.2290    -1.7240    -1.0920 ca         1 4AR      -0.121500
     18 C12          6.4160    -1.1600    -0.6540 ca         1 4AR      -0.074000
     19 C13          6.3980    -0.1740     0.3200 ca         1 4AR      -0.121500
     20 C14          5.1990     0.2580     0.8760 ca         1 4AR      -0.022300
     21 O3           2.4580     0.0940     2.1860 o          1 4AR      -0.481000
     22 C15          2.7400    -1.9470    -1.0800 c3         1 4AR      -0.055300
     23 C16          5.2170     1.3270     1.9330 c3         1 4AR      -0.055300
     24 H           -2.1550     2.4990    -2.2730 hn         1 4AR       0.407500
     25 H2          -2.9510     3.2090    -1.0500 hn         1 4AR       0.407500
     26 HA          -1.7170     2.1570     0.5900 h1         1 4AR       0.075700
     27 HB2         -2.3860     0.0940    -1.5530 hc         1 4AR       0.060700
     28 HB3         -2.0200    -0.2770     0.1230 hc         1 4AR       0.060700
     29 HG2         -3.9780     1.0850     0.8670 hc         1 4AR       0.060200
     30 HG3         -4.3820     1.4170    -0.8160 hc         1 4AR       0.060200
     31 HD2         -4.6180    -1.0330    -1.2380 h1         1 4AR       0.068200
     32 HD3         -4.2350    -1.3460     0.4570 h1         1 4AR       0.068200
     33 HE          -6.3920     0.5470     0.2430 hn         1 4AR       0.373000
     34 HH11        -5.6870    -2.9110    -0.1150 hn         1 4AR       0.380500
     35 HH12        -7.2920    -3.3790     0.2570 hn         1 4AR       0.380500
     36 HH21        -8.5170    -0.1070     0.7010 hn         1 4AR       0.380500
     37 HH22        -8.9310    -1.7730     0.6830 hn         1 4AR       0.380500
     38 H15          0.6670     1.8910     1.1840 h1         1 4AR       0.065200
     39 H16          0.0770     0.2390     1.0540 h1         1 4AR       0.065200
     40 H17          5.2480    -2.5010    -1.8470 ha         1 4AR       0.120000
     41 H18          7.3580    -1.4900    -1.0720 ha         1 4AR       0.122000
     42 H19          7.3280     0.2680     0.6550 ha         1 4AR       0.120000
     43 H20          2.1640    -1.2660    -1.7080 hc         1 4AR       0.049033
     44 H21          2.9730    -2.8280    -1.6760 hc         1 4AR       0.049033
     45 H22          2.0890    -2.2690    -0.2660 hc         1 4AR       0.049033
     46 H23          4.9640     0.9260     2.9150 hc         1 4AR       0.049033
     47 H24          6.2080     1.7740     2.0030 hc         1 4AR       0.049033
     48 H25          4.5110     2.1300     1.7190 hc         1 4AR       0.049033
@<TRIPOS>BOND
     1     1     2 1   
     2     1    24 1   
     3     1    25 1   
     4     2     3 1   
     5     2     5 1   
     6     2    26 1   
     7     3     4 2   
     8     3    12 1   
     9     5     6 1   
    10     5    27 1   
    11     5    28 1   
    12     6     7 1   
    13     6    29 1   
    14     6    30 1   
    15     7     8 1   
    16     7    31 1   
    17     7    32 1   
    18     8     9 2   
    19     8    33 1   
    20     9    10 1   
    21     9    11 1   
    22    10    34 1   
    23    10    35 1   
    24    11    36 1   
    25    11    37 1   
    26    12    13 1   
    27    12    38 1   
    28    12    39 1   
    29    13    14 1   
    30    14    15 1   
    31    14    21 2   
    32    15    16 ar  
    33    15    20 ar  
    34    16    17 ar  
    35    16    22 1   
    36    17    18 ar  
    37    17    40 1   
    38    18    19 ar  
    39    18    41 1   
    40    19    20 ar  
    41    19    42 1   
    42    20    23 1   
    43    22    43 1   
    44    22    44 1   
    45    22    45 1   
    46    23    46 1   
    47    23    47 1   
    48    23    48 1   
@<TRIPOS>SUBSTRUCTURE
     1 4AR         1 TEMP              0 ****  ****    0 ROOT
