@<TRIPOS>MOLECULE
4AR
   48    48     1     0     0
SMALL
No Charge or Current Charge


@<TRIPOS>ATOM
      1 N1          -2.2600     2.8010    -1.4990 n8         1 4AR      -0.976200
      2 C1          -1.6940     1.6910    -0.6590 c3         1 4AR       0.066500
      3 C2          -0.1920     1.3190    -0.9450 c          1 4AR       0.569100
      4 O1           0.3160     1.4750    -2.0540 o          1 4AR      -0.453100
      5 C3          -2.6090     0.4390    -0.7370 c3         1 4AR      -0.117400
      6 C4          -4.0360     0.6470    -0.1690 c3         1 4AR      -0.095400
      7 C5          -4.8790    -0.6420    -0.1940 c3         1 4AR       0.060600
      8 N2          -6.2180    -0.3780     0.3640 nu         1 4AR      -0.894000
      9 C6          -7.2300    -1.2070     0.5130 cz         1 4AR       0.937600
     10 N3          -7.1280    -2.4510     0.1470 nv         1 4AR      -0.610300
     11 N4          -8.3360    -0.7680     1.0320 nv         1 4AR      -0.610300
     12 C7           0.6010     0.7630     0.2610 c3         1 4AR       0.057600
     13 O2           1.9760     0.4480    -0.0750 os         1 4AR      -0.413100
     14 C8           2.7850    -0.0680     0.9060 c          1 4AR       0.611700
     15 C9           4.1830    -0.3600     0.4250 ca         1 4AR      -0.133600
     16 C10          4.4000    -1.2770    -0.6380 ca         1 4AR      -0.022300
     17 C11          5.7130    -1.5350    -1.0760 ca         1 4AR      -0.121500
     18 C12          6.8050    -0.9000    -0.4700 ca         1 4AR      -0.074000
     19 C13          6.5950     0.0010     0.5820 ca         1 4AR      -0.121500
     20 C14          5.2920     0.2790     1.0370 ca         1 4AR      -0.022300
     21 O3           2.4150    -0.2770     2.0540 o          1 4AR      -0.481000
     22 C15          3.2450    -2.0140    -1.3100 c3         1 4AR      -0.055300
     23 C16          5.1070     1.2840     2.1710 c3         1 4AR      -0.055300
     24 H           -2.2220     2.5340    -2.4910 hn         1 4AR       0.407500
     25 H2          -3.2650     2.8960    -1.3110 hn         1 4AR       0.407500
     26 HA          -1.7120     2.0390     0.3850 h1         1 4AR       0.075700
     27 HB2         -2.6750     0.0990    -1.7790 hc         1 4AR       0.060700
     28 HB3         -2.1390    -0.3800    -0.1770 hc         1 4AR       0.060700
     29 HG2         -3.9640     1.0080     0.8650 hc         1 4AR       0.060200
     30 HG3         -4.5580     1.4200    -0.7460 hc         1 4AR       0.060200
     31 HD2         -4.9590    -0.9970    -1.2320 h1         1 4AR       0.068200
     32 HD3         -4.3660    -1.4180     0.3930 h1         1 4AR       0.068200
     33 HE          -6.3840     0.5710     0.6790 hn         1 4AR       0.373000
     34 HH11        -6.2750    -2.7980    -0.2540 hn         1 4AR       0.380500
     35 HH12        -7.8850    -3.1060     0.2500 hn         1 4AR       0.380500
     36 HH21        -8.4380     0.1910     1.3210 hn         1 4AR       0.380500
     37 HH22        -9.1360    -1.3640     1.1650 hn         1 4AR       0.380500
     38 H15          0.5590     1.5170     1.0580 h1         1 4AR       0.065200
     39 H16          0.0770    -0.1320     0.6200 h1         1 4AR       0.065200
     40 H17          5.8890    -2.2350    -1.8900 ha         1 4AR       0.120000
     41 H18          7.8160    -1.1080    -0.8160 ha         1 4AR       0.122000
     42 H19          7.4520     0.4870     1.0440 ha         1 4AR       0.120000
     43 H20          2.7020    -1.3520    -1.9960 hc         1 4AR       0.049033
     44 H21          3.5980    -2.8720    -1.8950 hc         1 4AR       0.049033
     45 H22          2.5310    -2.4010    -0.5730 hc         1 4AR       0.049033
     46 H23          4.7930     0.7820     3.0940 hc         1 4AR       0.049033
     47 H24          6.0350     1.8240     2.3910 hc         1 4AR       0.049033
     48 H25          4.3490     2.0350     1.9190 hc         1 4AR       0.049033
@<TRIPOS>BOND
     1     1     2 1   
     2     1    24 1   
     3     1    25 1   
     4     2     3 1   
     5     2     5 1   
     6     2    26 1   
     7     3     4 2   
     8     3    12 1   
     9     5     6 1   
    10     5    27 1   
    11     5    28 1   
    12     6     7 1   
    13     6    29 1   
    14     6    30 1   
    15     7     8 1   
    16     7    31 1   
    17     7    32 1   
    18     8     9 2   
    19     8    33 1   
    20     9    10 1   
    21     9    11 1   
    22    10    34 1   
    23    10    35 1   
    24    11    36 1   
    25    11    37 1   
    26    12    13 1   
    27    12    38 1   
    28    12    39 1   
    29    13    14 1   
    30    14    15 1   
    31    14    21 2   
    32    15    16 ar  
    33    15    20 ar  
    34    16    17 ar  
    35    16    22 1   
    36    17    18 ar  
    37    17    40 1   
    38    18    19 ar  
    39    18    41 1   
    40    19    20 ar  
    41    19    42 1   
    42    20    23 1   
    43    22    43 1   
    44    22    44 1   
    45    22    45 1   
    46    23    46 1   
    47    23    47 1   
    48    23    48 1   
@<TRIPOS>SUBSTRUCTURE
     1 4AR         1 TEMP              0 ****  ****    0 ROOT
