@<TRIPOS>MOLECULE
4AS
   20    20     1     0     0
SMALL
No Charge or Current Charge


@<TRIPOS>ATOM
      1 C4           2.3700     0.1990     0.3270 cc         1 4AS      -0.232000
      2 C5           0.7480     2.1300     0.0270 c3         1 4AS       0.057900
      3 N1           0.9810    -1.5070    -0.1950 nd         1 4AS      -0.653000
      4 N2           1.1250     0.7070     0.0240 na         1 4AS      -0.165500
      5 C3           2.2590    -1.1600     0.1870 cd         1 4AS       0.232900
      6 C2           0.3050    -0.3660    -0.2850 cc         1 4AS       0.395800
      7 C1          -1.1640    -0.2470    -0.6870 c3         1 4AS       0.130500
      8 N           -2.1070    -0.1500     0.4680 n7         1 4AS      -0.846400
      9 C           -3.5330    -0.0320     0.1060 c3         1 4AS       0.142100
     10 H1           3.2160     0.8140     0.6090 h4         1 4AS       0.154000
     11 H2           0.4080     2.4240    -0.9740 h1         1 4AS       0.050367
     12 H3          -0.0590     2.2980     0.7500 h1         1 4AS       0.050367
     13 H4           1.6130     2.7450     0.3060 h1         1 4AS       0.050367
     14 H5           3.0300    -1.9060     0.3390 h4         1 4AS       0.038100
     15 H6          -1.2690     0.6320    -1.3370 h1         1 4AS       0.048700
     16 H7          -1.4170    -1.1220    -1.3020 h1         1 4AS       0.048700
     17 H8          -1.8500     0.6710     1.0330 hn         1 4AS       0.403000
     18 H10         -3.7130     0.8770    -0.4840 h1         1 4AS       0.031367
     19 H11         -3.8590    -0.8970    -0.4870 h1         1 4AS       0.031367
     20 H12         -4.1580     0.0170     1.0070 h1         1 4AS       0.031367
@<TRIPOS>BOND
     1     1     4 1   
     2     1     5 2   
     3     1    10 1   
     4     2     4 1   
     5     2    11 1   
     6     2    12 1   
     7     2    13 1   
     8     3     5 1   
     9     3     6 2   
    10     4     6 1   
    11     5    14 1   
    12     6     7 1   
    13     7     8 1   
    14     7    15 1   
    15     7    16 1   
    16     8     9 1   
    17     8    17 1   
    18     9    18 1   
    19     9    19 1   
    20     9    20 1   
@<TRIPOS>SUBSTRUCTURE
     1 4AS         1 TEMP              0 ****  ****    0 ROOT
