@<TRIPOS>MOLECULE
4AS
   20    20     1     0     0
SMALL
bcc


@<TRIPOS>ATOM
      1 C4           2.3010     0.1960     0.3090 cc         1 4AS      -0.264600
      2 C5           0.7340     2.1110    -0.0370 c3         1 4AS       0.028600
      3 N1           0.9180    -1.4790    -0.2220 nd         1 4AS      -0.653000
      4 N2           1.0690     0.7040     0.0110 na         1 4AS      -0.186900
      5 C3           2.1860    -1.1560     0.1610 cd         1 4AS       0.298200
      6 C2           0.2680    -0.3420    -0.3090 cc         1 4AS       0.395800
      7 C1          -1.1720    -0.1990    -0.6710 c3         1 4AS       0.130500
      8 N           -2.0230    -0.1760     0.5080 n7         1 4AS      -0.791200
      9 C           -3.4240    -0.0400     0.1610 c3         1 4AS       0.142100
     10 H1           3.1280     0.8250     0.5930 h4         1 4AS       0.172000
     11 H2           0.9690     2.5390    -1.0100 h1         1 4AS       0.050367
     12 H3          -0.3250     2.2560     0.1600 h1         1 4AS       0.050367
     13 H4           1.2940     2.6430     0.7280 h1         1 4AS       0.050367
     14 H5           2.9470    -1.9060     0.3140 h4         1 4AS       0.038100
     15 H6          -1.3130     0.6780    -1.3210 h1         1 4AS       0.048700
     16 H7          -1.4450    -1.0680    -1.2720 h1         1 4AS       0.048700
     17 H8          -1.7570     0.5960     1.1060 hn         1 4AS       0.347800
     18 H10         -3.6480     0.8260    -0.4780 h1         1 4AS       0.031367
     19 H11         -3.7630    -0.9320    -0.3680 h1         1 4AS       0.031367
     20 H12         -4.0190     0.0510     1.0690 h1         1 4AS       0.031367
@<TRIPOS>BOND
     1     1     4 1   
     2     1     5 2   
     3     1    10 1   
     4     2     4 1   
     5     2    11 1   
     6     2    12 1   
     7     2    13 1   
     8     3     5 1   
     9     3     6 2   
    10     4     6 1   
    11     5    14 1   
    12     6     7 1   
    13     7     8 1   
    14     7    15 1   
    15     7    16 1   
    16     8     9 1   
    17     8    17 1   
    18     9    18 1   
    19     9    19 1   
    20     9    20 1   
@<TRIPOS>SUBSTRUCTURE
     1 4AS         1 TEMP              0 ****  ****    0 ROOT
