@<TRIPOS>MOLECULE
4AT
   18    17     1     0     0
SMALL
bcc


@<TRIPOS>ATOM
      1 C            0.3850    -3.0260    -3.0870 c          1 4AT       0.921600
      2 O1           0.4620    -1.7960    -2.8880 o          1 4AT      -0.848300
      3 O2          -0.5110    -3.6130    -3.7290 o          1 4AT      -0.848300
      4 CA           1.5190    -3.9080    -2.5310 c3         1 4AT      -0.211400
      5 CB           2.2900    -3.3230    -1.3570 c3         1 4AT      -0.033400
      6 CG           1.4260    -3.1810    -0.1150 c3         1 4AT      -0.173400
      7 C2A          1.3410    -2.7250     2.3890 c3         1 4AT      -0.206100
      8 C1A          2.1290    -2.6560     1.1080 c          1 4AT       0.572100
      9 OAC          3.2560    -2.2130     1.0730 o          1 4AT      -0.549100
     10 HA1          1.1180    -4.8920    -2.2680 hc         1 4AT       0.018200
     11 HA2          2.2180    -4.0900    -3.3560 hc         1 4AT       0.018200
     12 HB1          2.6970    -2.3510    -1.6370 hc         1 4AT       0.029200
     13 HB2          3.1450    -3.9650    -1.1300 hc         1 4AT       0.029200
     14 HG1          0.5870    -2.5050    -0.3140 hc         1 4AT       0.068700
     15 HG2          0.9590    -4.1380     0.1500 hc         1 4AT       0.068700
     16 H2A1         0.3140    -2.3900     2.2360 hc         1 4AT       0.048700
     17 H2A2         1.8030    -2.1380     3.1800 hc         1 4AT       0.048700
     18 H2A3         1.2830    -3.7670     2.7150 hc         1 4AT       0.048700
@<TRIPOS>BOND
     1     1     2 1   
     2     1     3 1   
     3     1     4 1   
     4     4     5 1   
     5     4    10 1   
     6     4    11 1   
     7     5     6 1   
     8     5    12 1   
     9     5    13 1   
    10     6     8 1   
    11     6    14 1   
    12     6    15 1   
    13     7     8 1   
    14     7    16 1   
    15     7    17 1   
    16     7    18 1   
    17     8     9 2   
@<TRIPOS>SUBSTRUCTURE
     1 4AT         1 TEMP              0 ****  ****    0 ROOT
