@<TRIPOS>MOLECULE
4AT
   18    17     1     0     0
SMALL
No Charge or Current Charge


@<TRIPOS>ATOM
      1 C            0.7370    -3.0010    -3.3080 c          1 4AT       0.711000
      2 O1           1.4110    -2.4030    -4.1330 o          1 4AT      -0.743000
      3 O2          -0.4590    -2.8080    -3.1460 o          1 4AT      -0.743000
      4 CA           1.4410    -4.0310    -2.4050 c3         1 4AT      -0.211400
      5 CB           2.0610    -3.3620    -1.1510 c3         1 4AT      -0.033400
      6 CG           1.0280    -2.7800    -0.1560 c3         1 4AT      -0.173400
      7 C2A          1.7700    -3.1650     2.3140 c3         1 4AT      -0.206100
      8 C1A          1.7130    -2.2330     1.1030 c          1 4AT       0.572100
      9 OAC          2.1950    -1.1080     1.1390 o          1 4AT      -0.549100
     10 HA1          0.7290    -4.7790    -2.0360 hc         1 4AT       0.018200
     11 HA2          2.2950    -4.4690    -2.9370 hc         1 4AT       0.018200
     12 HB1          2.7500    -2.5670    -1.4670 hc         1 4AT       0.029200
     13 HB2          2.6700    -4.1100    -0.6270 hc         1 4AT       0.029200
     14 HG1          0.4750    -1.9680    -0.6410 hc         1 4AT       0.068700
     15 HG2          0.3480    -3.5920     0.1290 hc         1 4AT       0.068700
     16 H2A1         0.7480    -3.4490     2.5910 hc         1 4AT       0.048700
     17 H2A2         2.3080    -2.7280     3.1620 hc         1 4AT       0.048700
     18 H2A3         2.2010    -4.1260     2.0080 hc         1 4AT       0.048700
@<TRIPOS>BOND
     1     1     2 1   
     2     1     3 1   
     3     1     4 1   
     4     4     5 1   
     5     4    10 1   
     6     4    11 1   
     7     5     6 1   
     8     5    12 1   
     9     5    13 1   
    10     6     8 1   
    11     6    14 1   
    12     6    15 1   
    13     7     8 1   
    14     7    16 1   
    15     7    17 1   
    16     7    18 1   
    17     8     9 2   
@<TRIPOS>SUBSTRUCTURE
     1 4AT         1 TEMP              0 ****  ****    0 ROOT
