@<TRIPOS>MOLECULE
4AU
   25    27     1     0     0
SMALL
abcg2


@<TRIPOS>ATOM
      1 C1          -4.4480     0.0620     0.0350 ca         1 4AU      -0.087000
      2 C2          -3.5610    -0.9960     0.0380 ca         1 4AU      -0.111000
      3 C3          -2.2060    -0.6700     0.0280 ca         1 4AU      -0.075200
      4 C4          -1.7500     0.6620     0.0150 ca         1 4AU       0.067400
      5 C5          -2.6670     1.7180     0.0130 ca         1 4AU      -0.048000
      6 C6          -4.0080     1.3990     0.0230 ca         1 4AU      -0.130000
      7 C8          -0.0200    -0.5780     0.0140 cc         1 4AU       0.344800
      8 N17         -1.0740    -1.4280     0.0260 na         1 4AU      -0.270600
      9 C10          1.3670    -1.1020     0.0120 c          1 4AU       0.562400
     10 C11          2.4690    -0.1720     0.0010 cc         1 4AU      -0.291600
     11 C12          3.8280    -0.4660    -0.0030 cd         1 4AU      -0.082000
     12 C13          4.5190     0.7500    -0.0150 cd         1 4AU      -0.211000
     13 C14          3.5660     1.7580    -0.0190 cc         1 4AU      -0.155000
     14 N7           2.3510     1.1940    -0.0100 na         1 4AU      -0.059000
     15 N9          -0.3830     0.6800     0.0070 nd         1 4AU      -0.592100
     16 O16          1.5320    -2.3130     0.0220 o          1 4AU      -0.538100
     17 H21          1.4580     1.6720    -0.0110 hn         1 4AU       0.385000
     18 H23          4.2550    -1.4570     0.0030 ha         1 4AU       0.144000
     19 H24          5.5880     0.8930    -0.0210 ha         1 4AU       0.137000
     20 H25          3.6860     2.8290    -0.0290 h4         1 4AU       0.149000
     21 H26         -1.0150    -2.4350     0.0320 hn         1 4AU       0.379000
     22 H1          -5.5110    -0.1400     0.0440 ha         1 4AU       0.116000
     23 H2          -3.9010    -2.0220     0.0480 ha         1 4AU       0.123000
     24 H6          -4.7460     2.1910     0.0210 ha         1 4AU       0.117000
     25 H5          -2.3290     2.7460     0.0030 ha         1 4AU       0.128000
@<TRIPOS>BOND
     1     1     2 ar  
     2     1     6 ar  
     3     1    22 1   
     4     2     3 ar  
     5     2    23 1   
     6     3     4 ar  
     7     3     8 1   
     8     4     5 ar  
     9     4    15 1   
    10     5     6 ar  
    11     5    25 1   
    12     6    24 1   
    13     7     8 1   
    14     7     9 1   
    15     7    15 2   
    16     8    21 1   
    17     9    10 1   
    18     9    16 2   
    19    10    11 2   
    20    10    14 1   
    21    11    12 1   
    22    11    18 1   
    23    12    13 2   
    24    12    19 1   
    25    13    14 1   
    26    13    20 1   
    27    14    17 1   
@<TRIPOS>SUBSTRUCTURE
     1 4AU         1 TEMP              0 ****  ****    0 ROOT
