@<TRIPOS>MOLECULE
4AV
   22    22     1     0     0
SMALL
No Charge or Current Charge


@<TRIPOS>ATOM
      1 C4          -1.7890     0.0350    -0.0700 ca         1 4AV      -0.183200
      2 C5          -1.6000     1.4250    -0.2490 ca         1 4AV      -0.035000
      3 C6          -0.3140     1.9810    -0.1420 ca         1 4AV      -0.122000
      4 N1          -3.1580    -0.5650    -0.1830 no         1 4AV       0.697200
      5 C7           0.7940     1.1670     0.1410 ca         1 4AV       0.177000
      6 O1          -4.1080     0.1870    -0.4350 o          1 4AV      -0.397500
      7 O           -3.2770    -1.7870    -0.0180 o          1 4AV      -0.397500
      8 C3          -0.6670    -0.7800     0.2150 ca         1 4AV      -0.041000
      9 Cl           2.3820     1.9290     0.2610 cl         1 4AV      -0.161000
     10 C2           0.6240    -0.2230     0.3230 ca         1 4AV      -0.086300
     11 C1           1.8040    -1.1370     0.6350 c3         1 4AV       0.202100
     12 N            2.4420    -1.6080    -0.6100 n7         1 4AV      -0.852400
     13 C            3.5960    -2.5080    -0.4220 c3         1 4AV       0.143100
     14 H1          -2.4410     2.0810    -0.4700 ha         1 4AV       0.155000
     15 H2          -0.1750     3.0500    -0.2810 ha         1 4AV       0.143000
     16 H3          -0.7910    -1.8530     0.3560 ha         1 4AV       0.151000
     17 H4           2.5290    -0.6070     1.2680 h1         1 4AV       0.047200
     18 H5           1.4440    -1.9930     1.2240 h1         1 4AV       0.047200
     19 H6           1.7320    -2.1040    -1.1630 hn         1 4AV       0.411000
     20 H8           4.3890    -2.0140     0.1570 h1         1 4AV       0.034033
     21 H9           3.3000    -3.4210     0.1120 h1         1 4AV       0.034033
     22 H10          4.0180    -2.8030    -1.3920 h1         1 4AV       0.034033
@<TRIPOS>BOND
     1     1     2 ar  
     2     1     4 1   
     3     1     8 ar  
     4     2     3 ar  
     5     2    14 1   
     6     3     5 ar  
     7     3    15 1   
     8     4     6 1   
     9     4     7 1   
    10     5     9 1   
    11     5    10 ar  
    12     8    10 ar  
    13     8    16 1   
    14    10    11 1   
    15    11    12 1   
    16    11    17 1   
    17    11    18 1   
    18    12    13 1   
    19    12    19 1   
    20    13    20 1   
    21    13    21 1   
    22    13    22 1   
@<TRIPOS>SUBSTRUCTURE
     1 4AV         1 TEMP              0 ****  ****    0 ROOT
