@<TRIPOS>MOLECULE
4AV
   22    22     1     0     0
SMALL
bcc


@<TRIPOS>ATOM
      1 C4          -1.7810     0.0580    -0.0350 ca         1 4AV      -0.183200
      2 C5          -1.5640     1.4060    -0.2690 ca         1 4AV      -0.053000
      3 C6          -0.2700     1.8890    -0.2090 ca         1 4AV      -0.140000
      4 N1          -3.1350    -0.4640    -0.0980 no         1 4AV       0.317200
      5 C7           0.7770     1.0240     0.0730 ca         1 4AV       0.085400
      6 O1          -4.0250     0.3010    -0.3840 o          1 4AV      -0.207500
      7 O           -3.3040    -1.6370     0.1380 o          1 4AV      -0.207500
      8 C3          -0.7350    -0.8050     0.2560 ca         1 4AV      -0.059000
      9 CL           2.3710     1.6760     0.1450 cl         1 4AV      -0.069400
     10 C2           0.5680    -0.3350     0.3170 ca         1 4AV      -0.086300
     11 C1           1.7000    -1.2820     0.5950 c3         1 4AV       0.202100
     12 N            2.4460    -1.5410    -0.6190 n7         1 4AV      -0.797200
     13 C            3.6330    -2.3360    -0.3780 c3         1 4AV       0.143100
     14 H1          -2.3760     2.0830    -0.4900 ha         1 4AV       0.173000
     15 H2          -0.0800     2.9380    -0.3830 ha         1 4AV       0.161000
     16 H3          -0.9190    -1.8550     0.4390 ha         1 4AV       0.169000
     17 H4           2.3780    -0.8340     1.3270 h1         1 4AV       0.047200
     18 H5           1.3000    -2.1920     1.0650 h1         1 4AV       0.047200
     19 H6           1.8450    -2.0300    -1.2710 hn         1 4AV       0.355800
     20 H8           4.3400    -1.7670     0.2290 h1         1 4AV       0.034033
     21 H9           3.4430    -3.2870     0.1380 h1         1 4AV       0.034033
     22 H10          4.1200    -2.5600    -1.3270 h1         1 4AV       0.034033
@<TRIPOS>BOND
     1     1     2 ar  
     2     1     4 1   
     3     1     8 ar  
     4     2     3 ar  
     5     2    14 1   
     6     3     5 ar  
     7     3    15 1   
     8     4     6 1   
     9     4     7 1   
    10     5     9 1   
    11     5    10 ar  
    12     8    10 ar  
    13     8    16 1   
    14    10    11 1   
    15    11    12 1   
    16    11    17 1   
    17    11    18 1   
    18    12    13 1   
    19    12    19 1   
    20    13    20 1   
    21    13    21 1   
    22    13    22 1   
@<TRIPOS>SUBSTRUCTURE
     1 4AV         1 TEMP              0 ****  ****    0 ROOT
