@<TRIPOS>MOLECULE
4AW
   25    26     1     0     0
SMALL
bcc


@<TRIPOS>ATOM
      1 N            7.4770    22.3310    -2.3000 n8         1 4AW      -0.876800
      2 CA           7.4150    21.7340    -0.9750 c3         1 4AW       0.017500
      3 C            8.2330    20.4300    -0.7750 c          1 4AW       0.898600
      4 O            8.8500    19.9750    -1.7570 o          1 4AW      -0.846300
      5 CB           5.9490    21.5060    -0.5750 c3         1 4AW       0.017800
      6 CG           5.2330    20.5440    -1.4670 cc         1 4AW      -0.215000
      7 CD1          5.2860    19.1760    -1.4350 cd         1 4AW      -0.083100
      8 CD2          4.3770    20.8640    -2.5680 ca         1 4AW       0.412100
      9 NE1          4.5270    18.6380    -2.4370 na         1 4AW      -0.177400
     10 CE2          3.9530    19.6430    -3.1490 ca         1 4AW      -0.171500
     11 NE3          3.9850    22.0580    -3.0230 nb         1 4AW      -0.604000
     12 CZ2          3.0990    19.6490    -4.2420 ca         1 4AW      -0.120000
     13 CZ3          3.1700    22.0540    -4.0630 ca         1 4AW       0.356200
     14 CH2          2.7060    20.8940    -4.7000 ca         1 4AW      -0.256300
     15 OXT          8.2040    19.9480     0.3780 o          1 4AW      -0.846300
     16 H            8.4520    22.4500    -2.5490 hn         1 4AW       0.325300
     17 H2           7.1340    21.6510    -2.9700 hn         1 4AW       0.325300
     18 HA           7.8180    22.4710    -0.2690 h1         1 4AW       0.039700
     19 HB2          5.9250    21.1520     0.4560 hc         1 4AW       0.044700
     20 HB3          5.4230    22.4630    -0.5920 hc         1 4AW       0.044700
     21 HD1          5.8210    18.5330    -0.7540 h4         1 4AW       0.189000
     22 HE1          4.4070    17.6530    -2.6060 hn         1 4AW       0.288700
     23 HZ2          2.7550    18.7360    -4.7120 ha         1 4AW       0.119000
     24 HZ3          2.8520    23.0230    -4.4320 h4         1 4AW       0.000100
     25 HH2          2.0400    20.9840    -5.5470 ha         1 4AW       0.118000
@<TRIPOS>BOND
     1     1     2 1   
     2     1    16 1   
     3     1    17 1   
     4     2     3 1   
     5     2     5 1   
     6     2    18 1   
     7     3     4 1   
     8     3    15 1   
     9     5     6 1   
    10     5    19 1   
    11     5    20 1   
    12     6     7 2   
    13     6     8 1   
    14     7     9 1   
    15     7    21 1   
    16     8    10 ar  
    17     8    11 ar  
    18     9    10 1   
    19     9    22 1   
    20    10    12 ar  
    21    11    13 ar  
    22    12    14 ar  
    23    12    23 1   
    24    13    14 ar  
    25    13    24 1   
    26    14    25 1   
@<TRIPOS>SUBSTRUCTURE
     1 4AW         1 TEMP              0 ****  ****    0 ROOT
