@<TRIPOS>MOLECULE
4AX
   13    13     1     0     0
SMALL
abcg2


@<TRIPOS>ATOM
      1 OG           0.1250     0.1490     2.0950 o          1 4AX      -0.525000
      2 O            1.0420    -0.3480    -1.1880 os         1 4AX      -0.230100
      3 N           -1.8160    -0.6390    -0.1400 n8         1 4AX      -0.984200
      4 NXT          1.2960    -0.2090     0.1670 ns         1 4AX      -0.358400
      5 CA          -0.8790     0.4730    -0.1330 c5         1 4AX       0.041500
      6 CB          -0.0590     0.5340    -1.4100 c5         1 4AX       0.134600
      7 C3           0.2070     0.1290     0.8810 c          1 4AX       0.552000
      8 H           -2.3010    -0.6790     0.7480 hn         1 4AX       0.408500
      9 HN2         -2.5310    -0.4630    -0.8360 hn         1 4AX       0.408500
     10 HXT          2.0640    -0.7780     0.4960 hn         1 4AX       0.354500
     11 HA          -1.3230     1.4480     0.0980 h1         1 4AX       0.063700
     12 HB1         -0.5870     0.1890    -2.2980 h1         1 4AX       0.066700
     13 HB2          0.3050     1.5530    -1.5780 h1         1 4AX       0.066700
@<TRIPOS>BOND
     1     1     7 2   
     2     2     4 1   
     3     2     6 1   
     4     3     5 1   
     5     3     8 1   
     6     3     9 1   
     7     4     7 1   
     8     4    10 1   
     9     5     6 1   
    10     5     7 1   
    11     5    11 1   
    12     6    12 1   
    13     6    13 1   
@<TRIPOS>SUBSTRUCTURE
     1 4AX         1 TEMP              0 ****  ****    0 ROOT
