@<TRIPOS>MOLECULE
4AX
   13    13     1     0     0
SMALL
No Charge or Current Charge


@<TRIPOS>ATOM
      1 OG           0.2010     0.0720     2.1340 o          1 4AX      -0.525000
      2 O            1.1320    -0.3490    -1.2270 os         1 4AX      -0.230100
      3 N           -1.9840    -0.6320    -0.1830 n8         1 4AX      -0.984200
      4 NXT          1.3850    -0.1540     0.1700 ns         1 4AX      -0.358400
      5 CA          -0.8690     0.3810    -0.1270 c5         1 4AX       0.041500
      6 CB          -0.0320     0.4880    -1.4410 c5         1 4AX       0.134600
      7 C3           0.2550     0.0920     0.9110 c          1 4AX       0.552000
      8 H           -2.4560    -0.6790     0.7310 hn         1 4AX       0.408500
      9 HN2         -2.7270    -0.3020    -0.8150 hn         1 4AX       0.408500
     10 HXT          2.2110    -0.5930     0.5650 hn         1 4AX       0.354500
     11 HA          -1.3110     1.3560     0.1220 h1         1 4AX       0.063700
     12 HB1         -0.5740     0.1600    -2.3370 h1         1 4AX       0.066700
     13 HB2          0.3120     1.5190    -1.6010 h1         1 4AX       0.066700
@<TRIPOS>BOND
     1     1     7 2   
     2     2     4 1   
     3     2     6 1   
     4     3     5 1   
     5     3     8 1   
     6     3     9 1   
     7     4     7 1   
     8     4    10 1   
     9     5     6 1   
    10     5     7 1   
    11     5    11 1   
    12     6    12 1   
    13     6    13 1   
@<TRIPOS>SUBSTRUCTURE
     1 4AX         1 TEMP              0 ****  ****    0 ROOT
