@<TRIPOS>MOLECULE
4AY
   17    17     1     0     0
SMALL
No Charge or Current Charge


@<TRIPOS>ATOM
      1 C4           2.3400    -0.0350     0.0900 ca         1 4AY      -0.117600
      2 C5           1.6450     1.1810     0.2960 ca         1 4AY      -0.091500
      3 C6           0.2840     1.1820     0.6460 ca         1 4AY      -0.119000
      4 C7           3.8130    -0.0370    -0.2890 c          1 4AY       0.711600
      5 O1           4.3890     1.0350    -0.4130 o          1 4AY      -0.718000
      6 O            4.3740    -1.1120    -0.4570 o          1 4AY      -0.718000
      7 C3           1.6280    -1.2480     0.2450 ca         1 4AY      -0.091500
      8 C2           0.2670    -1.2440     0.5960 ca         1 4AY      -0.119000
      9 C1          -0.4130    -0.0300     0.7990 ca         1 4AY      -0.141300
     10 C           -1.8890    -0.0270     1.1770 c3         1 4AY       0.183900
     11 H1           2.1610     2.1330     0.1840 ha         1 4AY       0.129000
     12 H2          -0.2290     2.1290     0.7970 ha         1 4AY       0.088000
     13 H4           2.1290    -2.2020     0.0940 ha         1 4AY       0.129000
     14 H5          -0.2600    -2.1890     0.7080 ha         1 4AY       0.088000
     15 H6          -2.1550    -0.9320     1.7380 h1         1 4AY       0.059700
     16 H7          -2.1430     0.8590     1.7730 h1         1 4AY       0.059700
     17 Br1         -3.0440     0.0130    -0.4500 br         1 4AY      -0.334000
@<TRIPOS>BOND
     1     1     2 ar  
     2     1     4 1   
     3     1     7 ar  
     4     2     3 ar  
     5     2    11 1   
     6     3     9 ar  
     7     3    12 1   
     8     4     5 1   
     9     4     6 1   
    10     7     8 ar  
    11     7    13 1   
    12     8     9 ar  
    13     8    14 1   
    14     9    10 1   
    15    10    15 1   
    16    10    16 1   
    17    10    17 1   
@<TRIPOS>SUBSTRUCTURE
     1 4AY         1 TEMP              0 ****  ****    0 ROOT
