@<TRIPOS>MOLECULE
4AY
   17    17     1     0     0
SMALL
bcc


@<TRIPOS>ATOM
      1 C4           2.3140    -0.0350     0.0930 ca         1 4AY      -0.117600
      2 C5           1.6300     1.1620     0.2930 ca         1 4AY      -0.109500
      3 C6           0.2890     1.1660     0.6430 ca         1 4AY      -0.137000
      4 C7           3.7890    -0.0360    -0.2930 c          1 4AY       0.922200
      5 O1           4.3300     1.0780    -0.4250 o          1 4AY      -0.823300
      6 O            4.3240    -1.1510    -0.4440 o          1 4AY      -0.823300
      7 C3           1.6190    -1.2300     0.2590 ca         1 4AY      -0.109500
      8 C2           0.2770    -1.2320     0.6070 ca         1 4AY      -0.137000
      9 C1          -0.4040    -0.0320     0.8030 ca         1 4AY      -0.141300
     10 C           -1.8430    -0.0320     1.1740 c3         1 4AY       0.101300
     11 H1           2.1550     2.1000     0.1740 ha         1 4AY       0.147000
     12 H2          -0.2250     2.1070     0.7970 ha         1 4AY       0.106000
     13 H4           2.1350    -2.1700     0.1130 ha         1 4AY       0.147000
     14 H5          -0.2460    -2.1720     0.7330 ha         1 4AY       0.106000
     15 H6          -2.1440    -0.9460     1.6820 h1         1 4AY       0.059700
     16 H7          -2.1220     0.8290     1.7780 h1         1 4AY       0.059700
     17 BR1         -2.9820     0.0710    -0.4540 br         1 4AY      -0.251400
@<TRIPOS>BOND
     1     1     2 ar  
     2     1     4 1   
     3     1     7 ar  
     4     2     3 ar  
     5     2    11 1   
     6     3     9 ar  
     7     3    12 1   
     8     4     5 1   
     9     4     6 1   
    10     7     8 ar  
    11     7    13 1   
    12     8     9 ar  
    13     8    14 1   
    14     9    10 1   
    15    10    15 1   
    16    10    16 1   
    17    10    17 1   
@<TRIPOS>SUBSTRUCTURE
     1 4AY         1 TEMP              0 ****  ****    0 ROOT
