@<TRIPOS>MOLECULE
4AZ
   19    19     1     0     0
SMALL
No Charge or Current Charge


@<TRIPOS>ATOM
      1 C            2.6040    -0.0080     0.0750 c          1 4AZ       0.711600
      2 OXT          3.1920     1.0640     0.1190 o          1 4AZ      -0.723500
      3 C1           1.0880    -0.0050    -0.0560 ca         1 4AZ      -0.127600
      4 N1          -3.9240     0.0210     0.8730 n8         1 4AZ      -0.994200
      5 C2           0.3610    -1.2180    -0.1100 ca         1 4AZ      -0.093500
      6 C3          -1.0400    -1.2130    -0.2310 ca         1 4AZ      -0.132000
      7 C4          -1.7470     0.0010    -0.3000 ca         1 4AZ      -0.128300
      8 C5          -1.0330     1.2130    -0.2480 ca         1 4AZ      -0.132000
      9 C6           0.3680     1.2110    -0.1270 ca         1 4AZ      -0.093500
     10 C7          -3.2640     0.0050    -0.4410 c3         1 4AZ       0.206100
     11 O            3.1860    -1.0830     0.1330 o          1 4AZ      -0.723500
     12 HN1         -3.6460     0.8800     1.3610 hn         1 4AZ       0.382500
     13 HN1A        -4.9340     0.1320     0.7330 hn         1 4AZ       0.382500
     14 H2           0.8810    -2.1720    -0.0580 ha         1 4AZ       0.124500
     15 H3          -1.5770    -2.1580    -0.2700 ha         1 4AZ       0.090500
     16 H5          -1.5650     2.1600    -0.3030 ha         1 4AZ       0.090500
     17 H6           0.8930     2.1630    -0.0890 ha         1 4AZ       0.124500
     18 H7          -3.5950    -0.8870    -0.9910 h1         1 4AZ       0.017700
     19 H7A         -3.5830     0.8930    -1.0040 h1         1 4AZ       0.017700
@<TRIPOS>BOND
     1     1     2 1   
     2     1     3 1   
     3     1    11 1   
     4     3     5 ar  
     5     3     9 ar  
     6     4    10 1   
     7     4    12 1   
     8     4    13 1   
     9     5     6 ar  
    10     5    14 1   
    11     6     7 ar  
    12     6    15 1   
    13     7     8 ar  
    14     7    10 1   
    15     8     9 ar  
    16     8    16 1   
    17     9    17 1   
    18    10    18 1   
    19    10    19 1   
@<TRIPOS>SUBSTRUCTURE
     1 4AZ         1 TEMP              0 ****  ****    0 ROOT
