@<TRIPOS>MOLECULE
4AZ
   19    19     1     0     0
SMALL
bcc


@<TRIPOS>ATOM
      1 C            2.5940    -0.0940    -0.0060 c          1 4AZ       0.922200
      2 OXT          3.2390     0.9490    -0.2280 o          1 4AZ      -0.828800
      3 C1           1.0780     0.0100    -0.0860 ca         1 4AZ      -0.127600
      4 N1          -3.9360    -0.6160     0.5270 n8         1 4AZ      -0.883800
      5 C2           0.2670    -1.0860     0.1970 ca         1 4AZ      -0.111500
      6 C3          -1.1170    -0.9950     0.1330 ca         1 4AZ      -0.150000
      7 C4          -1.7360     0.2010    -0.2210 ca         1 4AZ      -0.128300
      8 C5          -0.9260     1.3000    -0.5010 ca         1 4AZ      -0.150000
      9 C6           0.4560     1.2060    -0.4380 ca         1 4AZ      -0.111500
     10 C7          -3.2350     0.3220    -0.3320 c3         1 4AZ       0.206100
     11 O            3.0640    -1.2140     0.2780 o          1 4AZ      -0.828800
     12 HN1         -3.7980    -0.3580     1.4960 hn         1 4AZ       0.327300
     13 HN1A        -4.9300    -0.5410     0.3570 hn         1 4AZ       0.327300
     14 H2           0.7250    -2.0250     0.4790 ha         1 4AZ       0.142500
     15 H3          -1.7240    -1.8600     0.3670 ha         1 4AZ       0.108500
     16 H5          -1.3840     2.2450    -0.7710 ha         1 4AZ       0.108500
     17 H6           1.0610     2.0760    -0.6590 ha         1 4AZ       0.142500
     18 H7          -3.5240     0.1060    -1.3650 h1         1 4AZ       0.017700
     19 H7A         -3.5110     1.3720    -0.1610 h1         1 4AZ       0.017700
@<TRIPOS>BOND
     1     1     2 1   
     2     1     3 1   
     3     1    11 1   
     4     3     5 ar  
     5     3     9 ar  
     6     4    10 1   
     7     4    12 1   
     8     4    13 1   
     9     5     6 ar  
    10     5    14 1   
    11     6     7 ar  
    12     6    15 1   
    13     7     8 ar  
    14     7    10 1   
    15     8     9 ar  
    16     8    16 1   
    17     9    17 1   
    18    10    18 1   
    19    10    19 1   
@<TRIPOS>SUBSTRUCTURE
     1 4AZ         1 TEMP              0 ****  ****    0 ROOT
