@<TRIPOS>MOLECULE
4B0
   24    25     1     0     0
SMALL
abcg2


@<TRIPOS>ATOM
      1 OAA          6.2290    -1.0560    -1.7480 oh         1 4B0      -0.654000
      2 BRAC        -0.6670     2.7580    -0.1530 br         1 4B0      -0.019100
      3 BRAD        -2.7610    -2.5390    -0.0320 br         1 4B0      -0.004100
      4 BRAE         2.3390     1.5890     0.4000 br         1 4B0      -0.036100
      5 CAF          5.6480    -1.1470    -0.4680 c3         1 4B0       0.169600
      6 CAG          4.1670    -1.4330    -0.6370 c3         1 4B0      -0.107400
      7 CAH          3.4970    -1.5950     0.7180 c3         1 4B0       0.085600
      8 NAI          0.3510    -3.0800     0.4480 nc         1 4B0      -0.197400
      9 NAJ          1.6110    -3.0540     0.6250 nd         1 4B0      -0.148400
     10 CAK         -1.5250     0.0460    -0.0650 ca         1 4B0      -0.020900
     11 CAL         -0.4030     0.9170     0.0300 ca         1 4B0       0.037100
     12 CAM         -1.3630    -1.3160     0.0680 ca         1 4B0       0.075100
     13 CAN          0.8760     0.4370     0.2570 ca         1 4B0       0.001100
     14 CAO         -0.0740    -1.8020     0.2890 ca         1 4B0       0.026400
     15 CAP          1.0280    -0.9510     0.3820 ca         1 4B0      -0.052200
     16 NAQ          2.0610    -1.8060     0.6010 na         1 4B0       0.082600
     17 HOAA         7.1670    -0.8750    -1.6390 ho         1 4B0       0.448000
     18 HAF          6.1080    -1.9460     0.1280 h1         1 4B0       0.018700
     19 HAFA         5.7740    -0.2150     0.1000 h1         1 4B0       0.018700
     20 HAG          3.7020    -0.6200    -1.2000 hc         1 4B0       0.073200
     21 HAGA         4.0310    -2.3500    -1.2170 hc         1 4B0       0.073200
     22 HAH          3.8810    -2.4740     1.2330 h1         1 4B0       0.076700
     23 HAHA         3.6730    -0.7430     1.3710 h1         1 4B0       0.076700
     24 BRAB        -3.2320     0.7440    -0.3680 br         1 4B0      -0.022100
@<TRIPOS>BOND
     1     1     5 1   
     2     1    17 1   
     3     2    11 1   
     4     3    12 1   
     5     4    13 1   
     6     5     6 1   
     7     5    18 1   
     8     5    19 1   
     9     6     7 1   
    10     6    20 1   
    11     6    21 1   
    12     7    16 1   
    13     7    22 1   
    14     7    23 1   
    15     8     9 2   
    16     8    14 1   
    17     9    16 1   
    18    10    11 ar  
    19    10    12 ar  
    20    10    24 1   
    21    11    13 ar  
    22    12    14 ar  
    23    13    15 ar  
    24    14    15 ar  
    25    15    16 1   
@<TRIPOS>SUBSTRUCTURE
     1 4B0         1 TEMP              0 ****  ****    0 ROOT
