@<TRIPOS>MOLECULE
4B0
   24    25     1     0     0
SMALL
No Charge or Current Charge


@<TRIPOS>ATOM
      1 OAA          6.2560    -0.9590    -1.7710 oh         1 4B0      -0.654000
      2 BrAC        -0.5590     2.8330    -0.1810 br         1 4B0      -0.019100
      3 BrAD        -2.9000    -2.4790    -0.0160 br         1 4B0      -0.004100
      4 BrAE         2.4520     1.5300     0.3560 br         1 4B0      -0.036100
      5 CAF          5.6600    -1.0790    -0.4770 c3         1 4B0       0.169600
      6 CAG          4.1800    -1.4680    -0.6280 c3         1 4B0      -0.107400
      7 CAH          3.4630    -1.6230     0.7330 c3         1 4B0       0.085600
      8 NAI          0.2460    -3.1820     0.4770 nc         1 4B0      -0.197400
      9 NAJ          1.5620    -3.2250     0.6560 nd         1 4B0      -0.148400
     10 CAK         -1.5100     0.0910    -0.0620 ca         1 4B0      -0.020900
     11 CAL         -0.3640     0.9260     0.0180 ca         1 4B0       0.037100
     12 CAM         -1.3780    -1.3090     0.0840 ca         1 4B0       0.075100
     13 CAN          0.9200     0.3660     0.2450 ca         1 4B0       0.001100
     14 CAO         -0.1010    -1.8450     0.3060 ca         1 4B0       0.026400
     15 CAP          1.0010    -1.0400     0.3820 ca         1 4B0      -0.052200
     16 NAQ          2.0280    -1.9280     0.6020 na         1 4B0       0.082600
     17 HOAA         7.1970    -0.7110    -1.6310 ho         1 4B0       0.448000
     18 HAF          6.1800    -1.8460     0.1120 h1         1 4B0       0.018700
     19 HAFA         5.7330    -0.1260     0.0650 h1         1 4B0       0.018700
     20 HAG          3.6680    -0.7090    -1.2310 hc         1 4B0       0.073200
     21 HAGA         4.1080    -2.4130    -1.1790 hc         1 4B0       0.073200
     22 HAH          3.9350    -2.4460     1.2850 h1         1 4B0       0.076700
     23 HAHA         3.5910    -0.7270     1.3480 h1         1 4B0       0.076700
     24 BrAB        -3.2490     0.8590    -0.3700 br         1 4B0      -0.022100
@<TRIPOS>BOND
     1     1     5 1   
     2     1    17 1   
     3     2    11 1   
     4     3    12 1   
     5     4    13 1   
     6     5     6 1   
     7     5    18 1   
     8     5    19 1   
     9     6     7 1   
    10     6    20 1   
    11     6    21 1   
    12     7    16 1   
    13     7    22 1   
    14     7    23 1   
    15     8     9 2   
    16     8    14 1   
    17     9    16 1   
    18    10    11 ar  
    19    10    12 ar  
    20    10    24 1   
    21    11    13 ar  
    22    12    14 ar  
    23    13    15 ar  
    24    14    15 ar  
    25    15    16 1   
@<TRIPOS>SUBSTRUCTURE
     1 4B0         1 TEMP              0 ****  ****    0 ROOT
