@<TRIPOS>MOLECULE
4B1
   74    78     1     0     0
SMALL
No Charge or Current Charge


@<TRIPOS>ATOM
      1 C1          -1.0740    -2.2440    -1.1940 c3         1 4B1       0.270100
      2 C2           1.0690    -1.3980     0.8830 c5         1 4B1       0.237500
      3 C3          -0.1310    -2.1990    -2.4030 ca         1 4B1      -0.118300
      4 C4          -0.4450    -0.9860     1.0190 c5         1 4B1       0.194500
      5 N1           0.0290    -2.8600     2.5420 n7         1 4B1      -0.870400
      6 C5           1.1070    -2.8380     1.5160 c5         1 4B1       0.144800
      7 C6          -1.0930    -2.1100     1.9180 c5         1 4B1       0.136800
      8 N2           1.9700    -0.4460     1.6530 n3         1 4B1      -0.785500
      9 N3          -1.1050    -1.0170    -0.3450 n3         1 4B1      -0.766500
     10 S1          -1.9440     0.3230    -0.9750 sy         1 4B1       1.181600
     11 C7           1.0870    -2.9120    -2.3810 ca         1 4B1      -0.102500
     12 C8          -0.5060    -1.5330    -3.5900 ca         1 4B1      -0.102500
     13 C9           1.9200    -2.9430    -3.5120 ca         1 4B1      -0.109000
     14 C10          0.3300    -1.5600    -4.7200 ca         1 4B1      -0.109000
     15 C11          1.5420    -2.2670    -4.6830 ca         1 4B1      -0.097000
     16 C12         -2.2700     2.4440     0.7980 ca         1 4B1       0.027000
     17 C13         -2.6090     1.1130     0.4930 ca         1 4B1      -0.305500
     18 C14         -2.8470     3.0670     1.9160 ca         1 4B1      -0.138000
     19 C15         -3.5080     0.4020     1.3110 ca         1 4B1       0.041000
     20 C16         -3.7410     2.3640     2.7410 ca         1 4B1      -0.001000
     21 C17         -4.0690     1.0200     2.4510 ca         1 4B1      -0.199200
     22 N4          -5.0020     0.2590     3.3380 no         1 4B1       0.694200
     23 O1          -5.2380    -0.9230     3.0610 o          1 4B1      -0.391500
     24 O2          -5.4800     0.8410     4.3190 o          1 4B1      -0.391500
     25 C18          1.8700    -0.3810     3.1420 c3         1 4B1       0.277100
     26 S2           3.5540    -0.2020     1.0900 sy         1 4B1       1.183600
     27 C19          0.7550     0.5180     3.6670 ca         1 4B1      -0.106300
     28 C20         -0.2420     0.0020     4.5190 ca         1 4B1      -0.092500
     29 C21          0.7560     1.8930     3.3590 ca         1 4B1      -0.092500
     30 C22         -1.2240     0.8510     5.0580 ca         1 4B1      -0.118500
     31 C23         -0.2200     2.7430     3.9060 ca         1 4B1      -0.118500
     32 C24         -1.2070     2.2230     4.7600 ca         1 4B1      -0.117000
     33 C25          3.3220     0.0900    -0.6720 ca         1 4B1      -0.238500
     34 C26          2.3920     1.0570    -1.1000 ca         1 4B1      -0.023500
     35 C27          4.0770    -0.6230    -1.6240 ca         1 4B1      -0.023500
     36 C28          2.2170     1.3120    -2.4700 ca         1 4B1      -0.066000
     37 C29          3.9120    -0.3580    -2.9950 ca         1 4B1      -0.066000
     38 C30          2.9800     0.6130    -3.4340 ca         1 4B1      -0.109200
     39 O3           3.9870     1.0790     1.6600 o          1 4B1      -0.536000
     40 O4           4.3020    -1.4440     1.3130 o          1 4B1      -0.536000
     41 O5          -0.9690     1.1990    -1.6310 o          1 4B1      -0.528000
     42 O6          -3.1080    -0.2210    -1.6820 o          1 4B1      -0.528000
     43 N5           2.8030     0.8950    -4.8950 no         1 4B1       0.689200
     44 O7           1.9370     1.7130    -5.2340 o          1 4B1      -0.392000
     45 O8           3.5460     0.3150    -5.6980 o          1 4B1      -0.392000
     46 H1          -2.0830    -2.4770    -1.5590 h1         1 4B1       0.061200
     47 H2          -0.7930    -3.1170    -0.5940 h1         1 4B1       0.061200
     48 H3          -0.5280    -0.0020     1.4940 h1         1 4B1       0.095700
     49 H4          -0.2500    -3.8240     2.7730 hn         1 4B1       0.428000
     50 H6           0.8960    -3.5930     0.7470 h1         1 4B1       0.052200
     51 H7           2.0880    -3.0860     1.9430 h1         1 4B1       0.052200
     52 H8          -1.7510    -1.6770     2.6830 h1         1 4B1       0.045200
     53 H9          -1.7140    -2.7960     1.3270 h1         1 4B1       0.045200
     54 H10          1.3870    -3.4630    -1.4940 ha         1 4B1       0.123000
     55 H11         -1.4540    -1.0060    -3.6490 ha         1 4B1       0.123000
     56 H12          2.8550    -3.4970    -3.4840 ha         1 4B1       0.122000
     57 H13          0.0310    -1.0420    -5.6280 ha         1 4B1       0.122000
     58 H14          2.1840    -2.2950    -5.5600 ha         1 4B1       0.120000
     59 H15         -2.5940     4.0990     2.1490 ha         1 4B1       0.136000
     60 H16         -3.7630    -0.6270     1.0550 ha         1 4B1       0.166000
     61 H17         -4.1660     2.8690     3.6060 ha         1 4B1       0.156000
     62 H18          1.7880    -1.3790     3.5870 h1         1 4B1       0.076700
     63 H19          2.7930     0.0250     3.5780 h1         1 4B1       0.076700
     64 H20         -0.2500    -1.0560     4.7730 ha         1 4B1       0.121000
     65 H21          1.5250     2.3030     2.7070 ha         1 4B1       0.121000
     66 H22         -1.9910     0.4470     5.7150 ha         1 4B1       0.116000
     67 H23         -0.2080     3.8050     3.6710 ha         1 4B1       0.116000
     68 H24         -1.9600     2.8820     5.1860 ha         1 4B1       0.113000
     69 H25          1.7990     1.6080    -0.3720 ha         1 4B1       0.145500
     70 H26          4.8000    -1.3730    -1.3090 ha         1 4B1       0.145500
     71 H27          1.4850     2.0590    -2.7730 ha         1 4B1       0.154000
     72 H28          4.5110    -0.9160    -3.7120 ha         1 4B1       0.154000
     73 H5           1.3570    -1.4340    -0.1730 h1         1 4B1       0.089700
     74 H33         -1.5780     3.0040     0.1700 ha         1 4B1       0.156000
@<TRIPOS>BOND
     1     1     3 1   
     2     1     9 1   
     3     1    46 1   
     4     1    47 1   
     5     2     4 1   
     6     2     6 1   
     7     2     8 1   
     8     2    73 1   
     9     3    11 ar  
    10     3    12 ar  
    11     4     7 1   
    12     4     9 1   
    13     4    48 1   
    14     5     6 1   
    15     5     7 1   
    16     5    49 1   
    17     6    50 1   
    18     6    51 1   
    19     7    52 1   
    20     7    53 1   
    21     8    25 1   
    22     8    26 1   
    23     9    10 1   
    24    10    17 1   
    25    10    41 2   
    26    10    42 2   
    27    11    13 ar  
    28    11    54 1   
    29    12    14 ar  
    30    12    55 1   
    31    13    15 ar  
    32    13    56 1   
    33    14    15 ar  
    34    14    57 1   
    35    15    58 1   
    36    16    17 ar  
    37    16    18 ar  
    38    16    74 1   
    39    17    19 ar  
    40    18    20 ar  
    41    18    59 1   
    42    19    21 ar  
    43    19    60 1   
    44    20    21 ar  
    45    20    61 1   
    46    21    22 1   
    47    22    23 1   
    48    22    24 1   
    49    25    27 1   
    50    25    62 1   
    51    25    63 1   
    52    26    33 1   
    53    26    39 2   
    54    26    40 2   
    55    27    28 ar  
    56    27    29 ar  
    57    28    30 ar  
    58    28    64 1   
    59    29    31 ar  
    60    29    65 1   
    61    30    32 ar  
    62    30    66 1   
    63    31    32 ar  
    64    31    67 1   
    65    32    68 1   
    66    33    34 ar  
    67    33    35 ar  
    68    34    36 ar  
    69    34    69 1   
    70    35    37 ar  
    71    35    70 1   
    72    36    38 ar  
    73    36    71 1   
    74    37    38 ar  
    75    37    72 1   
    76    38    43 1   
    77    43    44 1   
    78    43    45 1   
@<TRIPOS>SUBSTRUCTURE
     1 4B1         1 TEMP              0 ****  ****    0 ROOT
