@<TRIPOS>MOLECULE
4B1
   74    78     1     0     0
SMALL
abcg2


@<TRIPOS>ATOM
      1 C1          -1.0100    -2.2830    -0.9240 c3         1 4B1       0.270100
      2 C2           1.3480    -1.6910     1.1200 c5         1 4B1       0.237500
      3 C3          -0.0250    -2.7630    -1.9620 ca         1 4B1      -0.118300
      4 C4          -0.0420    -1.0020     1.0490 c5         1 4B1       0.194500
      5 N1           0.0990    -2.3430     2.9770 n7         1 4B1      -0.870400
      6 C5           1.1230    -2.8520     2.0880 c5         1 4B1       0.144800
      7 C6          -0.8870    -1.6940     2.1370 c5         1 4B1       0.136800
      8 N2           2.4110    -0.7760     1.5420 n3         1 4B1      -0.785500
      9 N3          -0.6350    -1.0140    -0.2880 n3         1 4B1      -0.766500
     10 S1          -1.3450     0.3910    -0.7730 sy         1 4B1       1.181600
     11 C7           0.8800    -3.7740    -1.6520 ca         1 4B1      -0.102500
     12 C8          -0.0070    -2.2210    -3.2460 ca         1 4B1      -0.102500
     13 C9           1.8110    -4.2100    -2.5860 ca         1 4B1      -0.109000
     14 C10          0.9150    -2.6610    -4.1850 ca         1 4B1      -0.109000
     15 C11          1.8340    -3.6500    -3.8550 ca         1 4B1      -0.097000
     16 C12         -2.4340     1.5720     1.4570 ca         1 4B1       0.027000
     17 C13         -2.6400     0.6810     0.4140 ca         1 4B1      -0.305500
     18 C14         -3.4270     1.7460     2.4090 ca         1 4B1      -0.138000
     19 C15         -3.8260    -0.0260     0.2900 ca         1 4B1       0.041000
     20 C16         -4.6160     1.0420     2.3200 ca         1 4B1      -0.001000
     21 C17         -4.7960     0.1670     1.2570 ca         1 4B1      -0.199200
     22 N4          -6.0510    -0.5680     1.1450 no         1 4B1       0.694200
     23 O1          -6.2140    -1.2590     0.1680 o          1 4B1      -0.391500
     24 O2          -6.8560    -0.4470     2.0350 o          1 4B1      -0.391500
     25 C18          2.4630    -0.2780     2.9190 c3         1 4B1       0.277100
     26 S2           3.6530    -0.5220     0.4960 sy         1 4B1       1.183600
     27 C19          1.5080     0.8480     3.2360 ca         1 4B1      -0.106300
     28 C20          0.5050     0.6750     4.1850 ca         1 4B1      -0.092500
     29 C21          1.6430     2.0910     2.6240 ca         1 4B1      -0.092500
     30 C22         -0.3450     1.7240     4.5160 ca         1 4B1      -0.118500
     31 C23          0.7930     3.1380     2.9460 ca         1 4B1      -0.118500
     32 C24         -0.2040     2.9580     3.8980 ca         1 4B1      -0.117000
     33 C25          2.9830     0.5010    -0.8010 ca         1 4B1      -0.238500
     34 C26          3.0990     1.8800    -0.7070 ca         1 4B1      -0.023500
     35 C27          2.3730    -0.0950    -1.8950 ca         1 4B1      -0.023500
     36 C28          2.5650     2.6800    -1.6990 ca         1 4B1      -0.066000
     37 C29          1.8350     0.7010    -2.8900 ca         1 4B1      -0.066000
     38 C30          1.9340     2.0760    -2.7740 ca         1 4B1      -0.109200
     39 O3           4.6660     0.2550     1.1900 o          1 4B1      -0.536000
     40 O4           4.0190    -1.7820    -0.1320 o          1 4B1      -0.536000
     41 O5          -0.3920     1.4730    -0.6240 o          1 4B1      -0.528000
     42 O6          -1.9740     0.1420    -2.0590 o          1 4B1      -0.528000
     43 N5           1.3610     2.9150    -3.8200 no         1 4B1       0.689200
     44 O7           1.4730     4.1120    -3.7090 o          1 4B1      -0.392000
     45 O8           0.8040     2.3680    -4.7410 o          1 4B1      -0.392000
     46 H1          -2.0030    -2.2040    -1.3660 h1         1 4B1       0.061200
     47 H2          -1.1030    -3.0380    -0.1430 h1         1 4B1       0.061200
     48 H3           0.1100     0.0410     1.3190 h1         1 4B1       0.095700
     49 H4          -0.3090    -3.0660     3.5550 hn         1 4B1       0.428000
     50 H6           0.7990    -3.7340     1.5140 h1         1 4B1       0.052200
     51 H7           2.0300    -3.1350     2.6250 h1         1 4B1       0.052200
     52 H8          -1.4690    -0.9690     2.7100 h1         1 4B1       0.045200
     53 H9          -1.6010    -2.3960     1.6870 h1         1 4B1       0.045200
     54 H10          0.8610    -4.2320    -0.6690 ha         1 4B1       0.123000
     55 H11         -0.7160    -1.4490    -3.5140 ha         1 4B1       0.123000
     56 H12          2.5130    -4.9900    -2.3220 ha         1 4B1       0.122000
     57 H13          0.9150    -2.2310    -5.1780 ha         1 4B1       0.122000
     58 H14          2.5560    -3.9880    -4.5860 ha         1 4B1       0.120000
     59 H15         -3.2770     2.4400     3.2230 ha         1 4B1       0.136000
     60 H16         -3.9940    -0.7060    -0.5330 ha         1 4B1       0.166000
     61 H17         -5.3840     1.1850     3.0650 ha         1 4B1       0.156000
     62 H18          2.2720    -1.1140     3.5900 h1         1 4B1       0.076700
     63 H19          3.4800     0.0480     3.1260 h1         1 4B1       0.076700
     64 H20          0.3790    -0.2940     4.6500 ha         1 4B1       0.121000
     65 H21          2.4280     2.2500     1.8980 ha         1 4B1       0.121000
     66 H22         -1.1190     1.5760     5.2580 ha         1 4B1       0.116000
     67 H23          0.9130     4.0990     2.4610 ha         1 4B1       0.116000
     68 H24         -0.8660     3.7750     4.1540 ha         1 4B1       0.113000
     69 H25          3.6180     2.3460     0.1180 ha         1 4B1       0.145500
     70 H26          2.3180    -1.1700    -1.9940 ha         1 4B1       0.145500
     71 H27          2.6550     3.7530    -1.6260 ha         1 4B1       0.154000
     72 H28          1.3620     0.2410    -3.7440 ha         1 4B1       0.154000
     73 H5           1.6200    -2.0800     0.1420 h1         1 4B1       0.089700
     74 H33         -1.5100     2.1310     1.5340 ha         1 4B1       0.156000
@<TRIPOS>BOND
     1     1     3 1   
     2     1     9 1   
     3     1    46 1   
     4     1    47 1   
     5     2     4 1   
     6     2     6 1   
     7     2     8 1   
     8     2    73 1   
     9     3    11 ar  
    10     3    12 ar  
    11     4     7 1   
    12     4     9 1   
    13     4    48 1   
    14     5     6 1   
    15     5     7 1   
    16     5    49 1   
    17     6    50 1   
    18     6    51 1   
    19     7    52 1   
    20     7    53 1   
    21     8    25 1   
    22     8    26 1   
    23     9    10 1   
    24    10    17 1   
    25    10    41 2   
    26    10    42 2   
    27    11    13 ar  
    28    11    54 1   
    29    12    14 ar  
    30    12    55 1   
    31    13    15 ar  
    32    13    56 1   
    33    14    15 ar  
    34    14    57 1   
    35    15    58 1   
    36    16    17 ar  
    37    16    18 ar  
    38    16    74 1   
    39    17    19 ar  
    40    18    20 ar  
    41    18    59 1   
    42    19    21 ar  
    43    19    60 1   
    44    20    21 ar  
    45    20    61 1   
    46    21    22 1   
    47    22    23 1   
    48    22    24 1   
    49    25    27 1   
    50    25    62 1   
    51    25    63 1   
    52    26    33 1   
    53    26    39 2   
    54    26    40 2   
    55    27    28 ar  
    56    27    29 ar  
    57    28    30 ar  
    58    28    64 1   
    59    29    31 ar  
    60    29    65 1   
    61    30    32 ar  
    62    30    66 1   
    63    31    32 ar  
    64    31    67 1   
    65    32    68 1   
    66    33    34 ar  
    67    33    35 ar  
    68    34    36 ar  
    69    34    69 1   
    70    35    37 ar  
    71    35    70 1   
    72    36    38 ar  
    73    36    71 1   
    74    37    38 ar  
    75    37    72 1   
    76    38    43 1   
    77    43    44 1   
    78    43    45 1   
@<TRIPOS>SUBSTRUCTURE
     1 4B1         1 TEMP              0 ****  ****    0 ROOT
