@<TRIPOS>MOLECULE
4B2
   36    38     1     0     0
SMALL
No Charge or Current Charge


@<TRIPOS>ATOM
      1 C7           0.5710    -0.9810    -0.2670 ca         1 4B2      -0.119300
      2 C1          -1.8650    -0.5500    -0.0040 cp         1 4B2      -0.095000
      3 C5           0.2980    -2.3700    -0.1680 ca         1 4B2       0.202000
      4 C4          -1.0100    -2.8420    -0.0040 ca         1 4B2      -0.203000
      5 C2          -2.0810    -1.9480     0.0730 ca         1 4B2       0.211000
      6 F3          -3.3210    -2.4490     0.2650 f          1 4B2      -0.168000
      7 F6           1.2860    -3.2900    -0.2030 f          1 4B2      -0.177000
      8 C8          -0.5330    -0.0920    -0.1650 ca         1 4B2      -0.028000
      9 C9           2.0290    -0.4370    -0.4370 c6         1 4B2       0.241500
     10 C10          2.7210    -1.1240    -1.6610 c3         1 4B2      -0.093100
     11 C11          2.8110    -0.7040     0.8860 c6         1 4B2      -0.108400
     12 C12          4.2520    -0.1770     0.8500 c6         1 4B2       0.065600
     13 S13          4.2770     1.6340     0.5810 ss         1 4B2      -0.392200
     14 C14          2.8560     1.8590    -0.4540 c2         1 4B2       0.703100
     15 N15          1.9920     0.9970    -0.8150 n2         1 4B2      -0.715900
     16 N16          2.7740     3.1440    -0.8400 nv         1 4B2      -1.006200
     17 C17         -2.9890     0.4370     0.0900 cp         1 4B2      -0.133000
     18 C18         -4.2390     0.2370    -0.5500 ca         1 4B2       0.121900
     19 N19         -5.2440     1.1320    -0.4700 nb         1 4B2      -0.172000
     20 C20         -5.0040     2.2430     0.2560 ca         1 4B2       0.118900
     21 N21         -3.8610     2.5490     0.9040 nb         1 4B2      -0.172000
     22 C22         -2.8610     1.6490     0.8160 ca         1 4B2       0.121900
     23 H1          -1.1930    -3.9090     0.0760 ha         1 4B2       0.152000
     24 H2          -0.3790     0.9820    -0.2180 ha         1 4B2       0.150000
     25 H3           2.0550    -1.1390    -2.5310 hc         1 4B2       0.048367
     26 H4           3.6330    -0.5970    -1.9640 hc         1 4B2       0.048367
     27 H5           3.0200    -2.1570    -1.4530 hc         1 4B2       0.048367
     28 H6           2.2760    -0.2390     1.7250 hc         1 4B2       0.070700
     29 H7           2.8390    -1.7790     1.1050 hc         1 4B2       0.070700
     30 H8           4.7670    -0.3940     1.7970 h1         1 4B2       0.077700
     31 H9           4.8200    -0.6580     0.0420 h1         1 4B2       0.077700
     32 H10          3.6710     3.6080    -0.8490 hn         1 4B2       0.471000
     33 H11          2.2190     3.2580    -1.6770 hn         1 4B2       0.471000
     34 H12         -4.4320    -0.6500    -1.1520 h4         1 4B2       0.030600
     35 H13         -5.8140     2.9680     0.3240 h5         1 4B2       0.051100
     36 H14         -1.9420     1.8960     1.3450 h4         1 4B2       0.030600
@<TRIPOS>BOND
     1     1     3 ar  
     2     1     8 ar  
     3     1     9 1   
     4     2     5 ar  
     5     2     8 ar  
     6     2    17 1   
     7     3     4 ar  
     8     3     7 1   
     9     4     5 ar  
    10     4    23 1   
    11     5     6 1   
    12     8    24 1   
    13     9    10 1   
    14     9    11 1   
    15     9    15 1   
    16    10    25 1   
    17    10    26 1   
    18    10    27 1   
    19    11    12 1   
    20    11    28 1   
    21    11    29 1   
    22    12    13 1   
    23    12    30 1   
    24    12    31 1   
    25    13    14 1   
    26    14    15 2   
    27    14    16 1   
    28    16    32 1   
    29    16    33 1   
    30    17    18 ar  
    31    17    22 ar  
    32    18    19 ar  
    33    18    34 1   
    34    19    20 ar  
    35    20    21 ar  
    36    20    35 1   
    37    21    22 ar  
    38    22    36 1   
@<TRIPOS>SUBSTRUCTURE
     1 4B2         1 TEMP              0 ****  ****    0 ROOT
