@<TRIPOS>MOLECULE
4B2
   36    38     1     0     0
SMALL
abcg2


@<TRIPOS>ATOM
      1 C7           0.5890    -0.9920    -0.2520 ca         1 4B2      -0.119300
      2 C1          -1.8120    -0.5440    -0.0070 cp         1 4B2      -0.095000
      3 C5           0.2880    -2.3400    -0.0840 ca         1 4B2       0.202000
      4 C4          -0.9930    -2.8160     0.1170 ca         1 4B2      -0.203000
      5 C2          -2.0250    -1.9040     0.1530 ca         1 4B2       0.211000
      6 F3          -3.2660    -2.3550     0.3740 f          1 4B2      -0.168000
      7 F6           1.2650    -3.2600    -0.1050 f          1 4B2      -0.177000
      8 C8          -0.4970    -0.1250    -0.2050 ca         1 4B2      -0.028000
      9 C9           2.0130    -0.4610    -0.4540 c6         1 4B2       0.241500
     10 C10          2.6670    -1.1330    -1.6730 c3         1 4B2      -0.093100
     11 C11          2.8080    -0.7300     0.8350 c6         1 4B2      -0.108400
     12 C12          4.2290    -0.2110     0.7720 c6         1 4B2       0.065600
     13 S13          4.2680     1.5800     0.4960 ss         1 4B2      -0.392200
     14 C14          2.7680     1.8110    -0.4260 c2         1 4B2       0.703100
     15 N15          1.9050     0.9470    -0.7590 n2         1 4B2      -0.715900
     16 N16          2.5770     3.1360    -0.7100 nv         1 4B2      -1.006200
     17 C17         -2.9090     0.4330     0.0570 cp         1 4B2      -0.133000
     18 C18         -4.0940     0.3010    -0.6610 ca         1 4B2       0.121900
     19 N19         -5.0650     1.2010    -0.6010 nb         1 4B2      -0.172000
     20 C20         -4.8580     2.2520     0.1770 ca         1 4B2       0.118900
     21 N21         -3.7730     2.4890     0.8980 nb         1 4B2      -0.172000
     22 C22         -2.8100     1.5810     0.8360 ca         1 4B2       0.121900
     23 H1          -1.1760    -3.8740     0.2520 ha         1 4B2       0.152000
     24 H2          -0.3040     0.9290    -0.3510 ha         1 4B2       0.150000
     25 H3           2.0160    -1.0500    -2.5440 hc         1 4B2       0.048367
     26 H4           3.6050    -0.6340    -1.9180 hc         1 4B2       0.048367
     27 H5           2.8850    -2.1850    -1.5070 hc         1 4B2       0.048367
     28 H6           2.2870    -0.2750     1.6810 hc         1 4B2       0.070700
     29 H7           2.8580    -1.8010     1.0280 hc         1 4B2       0.070700
     30 H8           4.7340    -0.3740     1.7230 h1         1 4B2       0.077700
     31 H9           4.8120    -0.7120    -0.0010 h1         1 4B2       0.077700
     32 H10          3.3970     3.7050    -0.8530 hn         1 4B2       0.471000
     33 H11          1.8450     3.3170    -1.3800 hn         1 4B2       0.471000
     34 H12         -4.2590    -0.5460    -1.3170 h4         1 4B2       0.030600
     35 H13         -5.6520     2.9880     0.2290 h5         1 4B2       0.051100
     36 H14         -1.9240     1.7620     1.4350 h4         1 4B2       0.030600
@<TRIPOS>BOND
     1     1     3 ar  
     2     1     8 ar  
     3     1     9 1   
     4     2     5 ar  
     5     2     8 ar  
     6     2    17 1   
     7     3     4 ar  
     8     3     7 1   
     9     4     5 ar  
    10     4    23 1   
    11     5     6 1   
    12     8    24 1   
    13     9    10 1   
    14     9    11 1   
    15     9    15 1   
    16    10    25 1   
    17    10    26 1   
    18    10    27 1   
    19    11    12 1   
    20    11    28 1   
    21    11    29 1   
    22    12    13 1   
    23    12    30 1   
    24    12    31 1   
    25    13    14 1   
    26    14    15 2   
    27    14    16 1   
    28    16    32 1   
    29    16    33 1   
    30    17    18 ar  
    31    17    22 ar  
    32    18    19 ar  
    33    18    34 1   
    34    19    20 ar  
    35    20    21 ar  
    36    20    35 1   
    37    21    22 ar  
    38    22    36 1   
@<TRIPOS>SUBSTRUCTURE
     1 4B2         1 TEMP              0 ****  ****    0 ROOT
