@<TRIPOS>MOLECULE
4B3
   57    59     1     0     0
SMALL
abcg2


@<TRIPOS>ATOM
      1 S1          -2.4080     2.4400    -0.2590 ss         1 4B3       0.220000
      2 C2          -3.8750     1.5580    -0.4220 cc         1 4B3      -0.241600
      3 C3          -3.7240     0.2740     0.0270 cd         1 4B3       0.108100
      4 C4          -2.3950     0.0220     0.4890 cd         1 4B3      -0.030900
      5 C5          -1.5570     1.0980     0.4070 cc         1 4B3      -0.259000
      6 C6          -5.0500     2.3060    -0.9890 c          1 4B3       0.733600
      7 O7          -6.1160     1.6860    -1.1340 o          1 4B3      -0.704500
      8 O8          -4.8110     3.5010    -1.2560 o          1 4B3      -0.704500
      9 C9          -0.1470     1.2440     0.7800 ca         1 4B3       0.090000
     10 C10          0.7910     0.3130     0.3540 ca         1 4B3      -0.166000
     11 C11          2.1490     0.4370     0.6820 ca         1 4B3       0.297000
     12 C12          2.5450     1.5530     1.4340 ca         1 4B3      -0.208000
     13 C13          1.6050     2.4850     1.8470 ca         1 4B3      -0.089000
     14 C14          0.2630     2.3480     1.5330 ca         1 4B3      -0.150000
     15 BR1         -1.9440    -1.6400     1.2260 br         1 4B3      -0.114100
     16 O20         -4.6720    -0.6750     0.0800 os         1 4B3      -0.291100
     17 C21         -4.9020    -1.3470    -1.1570 c3         1 4B3       0.025600
     18 C22         -5.9150    -2.4850    -0.9900 c          1 4B3       0.732000
     19 O25         -6.0990    -3.1450    -2.0330 o          1 4B3      -0.741500
     20 O26         -6.4540    -2.6430     0.1150 o          1 4B3      -0.741500
     21 N27          3.0240    -0.5450     0.2880 nu         1 4B3      -0.954200
     22 C28          4.4580    -0.3450     0.2030 c6         1 4B3       0.229500
     23 C30          5.1330    -1.7000     0.0290 c6         1 4B3      -0.089400
     24 C31          6.6630    -1.6130    -0.0450 c6         1 4B3      -0.038500
     25 C32          7.0680    -0.5640    -1.0950 c6         1 4B3      -0.057400
     26 C33          6.3690     0.8060    -1.0540 c6         1 4B3      -0.038500
     27 C34          4.8540     0.5910    -0.9390 c6         1 4B3      -0.089400
     28 C42          7.2080    -2.9700    -0.4980 c3         1 4B3      -0.082100
     29 C46          7.2480    -1.3240     1.3420 c3         1 4B3      -0.082100
     30 C50          6.6660     1.5220    -2.3750 c3         1 4B3      -0.082100
     31 C54          6.8760     1.7060     0.0780 c3         1 4B3      -0.082100
     32 H10          0.4790    -0.5240    -0.2600 ha         1 4B3       0.125000
     33 H12          3.5820     1.7010     1.7030 ha         1 4B3       0.089000
     34 H13          1.9330     3.3370     2.4280 ha         1 4B3       0.088000
     35 H14         -0.4590     3.0770     1.8790 ha         1 4B3       0.124000
     36 H211        -5.2810    -0.6340    -1.8950 h1         1 4B3       0.019700
     37 H212        -3.9610    -1.7550    -1.5440 h1         1 4B3       0.019700
     38 HN27         2.6560    -1.1650    -0.4180 hn         1 4B3       0.460000
     39 H28          4.7810     0.0820     1.1570 h1         1 4B3       0.059700
     40 H301         4.8390    -2.3690     0.8440 hc         1 4B3       0.048950
     41 H302         4.7560    -2.1540    -0.8980 hc         1 4B3       0.048950
     42 H321         8.1530    -0.4180    -1.0640 hc         1 4B3       0.031700
     43 H322         6.8500    -0.9980    -2.0790 hc         1 4B3       0.031700
     44 H341         4.4850     0.1490    -1.8730 hc         1 4B3       0.048950
     45 H342         4.3490     1.5570    -0.8330 hc         1 4B3       0.048950
     46 H421         6.8170    -3.2470    -1.4790 hc         1 4B3       0.029867
     47 H422         8.2980    -2.9550    -0.5660 hc         1 4B3       0.029867
     48 H423         6.9330    -3.7580     0.2070 hc         1 4B3       0.029867
     49 H461         7.0840    -2.1750     2.0070 hc         1 4B3       0.029867
     50 H462         8.3250    -1.1540     1.2830 hc         1 4B3       0.029867
     51 H463         6.8100    -0.4520     1.8260 hc         1 4B3       0.029867
     52 H501         6.3070     0.9440    -3.2290 hc         1 4B3       0.029867
     53 H502         6.1850     2.5020    -2.4080 hc         1 4B3       0.029867
     54 H503         7.7400     1.6770    -2.5060 hc         1 4B3       0.029867
     55 H541         7.9670     1.7550     0.0780 hc         1 4B3       0.029867
     56 H542         6.5020     2.7240    -0.0530 hc         1 4B3       0.029867
     57 H543         6.5660     1.3800     1.0690 hc         1 4B3       0.029867
@<TRIPOS>BOND
     1     1     2 1   
     2     1     5 1   
     3     2     3 2   
     4     2     6 1   
     5     3     4 1   
     6     3    16 1   
     7     4     5 2   
     8     4    15 1   
     9     5     9 1   
    10     6     7 1   
    11     6     8 1   
    12     9    10 ar  
    13     9    14 ar  
    14    10    11 ar  
    15    10    32 1   
    16    11    12 ar  
    17    11    21 1   
    18    12    13 ar  
    19    12    33 1   
    20    13    14 ar  
    21    13    34 1   
    22    14    35 1   
    23    16    17 1   
    24    17    18 1   
    25    17    36 1   
    26    17    37 1   
    27    18    19 1   
    28    18    20 1   
    29    21    22 1   
    30    21    38 1   
    31    22    23 1   
    32    22    27 1   
    33    22    39 1   
    34    23    24 1   
    35    23    40 1   
    36    23    41 1   
    37    24    25 1   
    38    24    28 1   
    39    24    29 1   
    40    25    26 1   
    41    25    42 1   
    42    25    43 1   
    43    26    27 1   
    44    26    30 1   
    45    26    31 1   
    46    27    44 1   
    47    27    45 1   
    48    28    46 1   
    49    28    47 1   
    50    28    48 1   
    51    29    49 1   
    52    29    50 1   
    53    29    51 1   
    54    30    52 1   
    55    30    53 1   
    56    30    54 1   
    57    31    55 1   
    58    31    56 1   
    59    31    57 1   
@<TRIPOS>SUBSTRUCTURE
     1 4B3         1 TEMP              0 ****  ****    0 ROOT
