@<TRIPOS>MOLECULE
4B3
   57    59     1     0     0
SMALL
No Charge or Current Charge


@<TRIPOS>ATOM
      1 S1          -2.2770     2.7050    -0.6290 ss         1 4B3       0.220000
      2 C2          -3.7840     1.8110    -0.7830 cc         1 4B3      -0.241600
      3 C3          -3.6500     0.5500    -0.2400 cd         1 4B3       0.108100
      4 C4          -2.3680     0.2710     0.3400 cd         1 4B3      -0.030900
      5 C5          -1.5140     1.3370     0.1720 cc         1 4B3      -0.259000
      6 C6          -4.9750     2.4050    -1.4340 c          1 4B3       0.733600
      7 O7          -6.0070     1.7610    -1.5440 o          1 4B3      -0.704500
      8 O8          -4.8810     3.5490    -1.8540 o          1 4B3      -0.704500
      9 C9          -0.1610     1.3490     0.7180 ca         1 4B3       0.090000
     10 C10          0.7790     0.3750     0.3330 ca         1 4B3      -0.166000
     11 C11          2.0850     0.4000     0.8430 ca         1 4B3       0.297000
     12 C12          2.4560     1.4110     1.7490 ca         1 4B3      -0.208000
     13 C13          1.5300     2.3950     2.1290 ca         1 4B3      -0.089000
     14 C14          0.2260     2.3650     1.6090 ca         1 4B3      -0.150000
     15 Br1         -1.9400    -1.2950     1.3280 br         1 4B3      -0.114100
     16 O20         -4.6930    -0.3390    -0.2170 os         1 4B3      -0.291100
     17 C21         -4.5640    -1.6070    -0.9090 c3         1 4B3       0.025600
     18 C22         -5.7960    -2.5440    -0.7180 c          1 4B3       0.732000
     19 O25         -5.8000    -3.6070    -1.3270 o          1 4B3      -0.741500
     20 O26         -6.7100    -2.2100     0.0280 o          1 4B3      -0.741500
     21 N27          2.9880    -0.5880     0.4410 nu         1 4B3      -0.954200
     22 C28          4.4430    -0.3930     0.3090 c6         1 4B3       0.229500
     23 C30          5.1040    -1.7550    -0.0320 c6         1 4B3      -0.089400
     24 C31          6.6530    -1.6660    -0.1960 c6         1 4B3      -0.038500
     25 C32          6.9700    -0.4980    -1.2680 c6         1 4B3      -0.057400
     26 C33          6.2640     0.8790    -1.0350 c6         1 4B3      -0.038500
     27 C34          4.7390     0.6480    -0.8070 c6         1 4B3      -0.089400
     28 C42          7.1670    -3.0850    -0.6950 c3         1 4B3      -0.082100
     29 C46          7.3420    -1.4940     1.2230 c3         1 4B3      -0.082100
     30 C50          6.4640     1.7540    -2.3110 c3         1 4B3      -0.082100
     31 C54          6.8990     1.6950     0.1370 c3         1 4B3      -0.082100
     32 H10          0.4900    -0.3970    -0.3720 ha         1 4B3       0.125000
     33 H12          3.4590     1.4420     2.1640 ha         1 4B3       0.089000
     34 H13          1.8200     3.1780     2.8260 ha         1 4B3       0.088000
     35 H14         -0.4900     3.1280     1.9060 ha         1 4B3       0.124000
     36 H211        -4.4440    -1.4290    -1.9850 h1         1 4B3       0.019700
     37 H212        -3.6830    -2.1610    -0.5700 h1         1 4B3       0.019700
     38 HN27         2.5770    -1.3270    -0.1260 hn         1 4B3       0.460000
     39 H28          4.8530    -0.0350     1.2630 h1         1 4B3       0.059700
     40 H301         4.8560    -2.4880     0.7490 hc         1 4B3       0.048950
     41 H302         4.6630    -2.1430    -0.9610 hc         1 4B3       0.048950
     42 H321         8.0570    -0.3520    -1.3320 hc         1 4B3       0.031700
     43 H322         6.6730    -0.8720    -2.2580 hc         1 4B3       0.031700
     44 H341         4.2770     0.3060    -1.7430 hc         1 4B3       0.048950
     45 H342         4.2570     1.6050    -0.5640 hc         1 4B3       0.048950
     46 H421         6.7430    -3.3370    -1.6750 hc         1 4B3       0.029867
     47 H422         8.2580    -3.0970    -0.8000 hc         1 4B3       0.029867
     48 H423         6.8890    -3.8890    -0.0020 hc         1 4B3       0.029867
     49 H461         7.2350    -2.3980     1.8340 hc         1 4B3       0.029867
     50 H462         8.4160    -1.2970     1.1180 hc         1 4B3       0.029867
     51 H463         6.9150    -0.6820     1.8150 hc         1 4B3       0.029867
     52 H501         6.0410     1.2720    -3.2000 hc         1 4B3       0.029867
     53 H502         5.9800     2.7340    -2.2120 hc         1 4B3       0.029867
     54 H503         7.5290     1.9270    -2.5090 hc         1 4B3       0.029867
     55 H541         7.9930     1.7000     0.0680 hc         1 4B3       0.029867
     56 H542         6.5660     2.7400     0.1220 hc         1 4B3       0.029867
     57 H543         6.6300     1.3130     1.1240 hc         1 4B3       0.029867
@<TRIPOS>BOND
     1     1     2 1   
     2     1     5 1   
     3     2     3 2   
     4     2     6 1   
     5     3     4 1   
     6     3    16 1   
     7     4     5 2   
     8     4    15 1   
     9     5     9 1   
    10     6     7 1   
    11     6     8 1   
    12     9    10 ar  
    13     9    14 ar  
    14    10    11 ar  
    15    10    32 1   
    16    11    12 ar  
    17    11    21 1   
    18    12    13 ar  
    19    12    33 1   
    20    13    14 ar  
    21    13    34 1   
    22    14    35 1   
    23    16    17 1   
    24    17    18 1   
    25    17    36 1   
    26    17    37 1   
    27    18    19 1   
    28    18    20 1   
    29    21    22 1   
    30    21    38 1   
    31    22    23 1   
    32    22    27 1   
    33    22    39 1   
    34    23    24 1   
    35    23    40 1   
    36    23    41 1   
    37    24    25 1   
    38    24    28 1   
    39    24    29 1   
    40    25    26 1   
    41    25    42 1   
    42    25    43 1   
    43    26    27 1   
    44    26    30 1   
    45    26    31 1   
    46    27    44 1   
    47    27    45 1   
    48    28    46 1   
    49    28    47 1   
    50    28    48 1   
    51    29    49 1   
    52    29    50 1   
    53    29    51 1   
    54    30    52 1   
    55    30    53 1   
    56    30    54 1   
    57    31    55 1   
    58    31    56 1   
    59    31    57 1   
@<TRIPOS>SUBSTRUCTURE
     1 4B3         1 TEMP              0 ****  ****    0 ROOT
