@<TRIPOS>MOLECULE
4B5
  101   103     1     0     0
SMALL
abcg2


@<TRIPOS>ATOM
      1 O47         -4.9840     1.3510     0.6920 o          1 4B5      -0.543000
      2 C04         -5.1930     0.8450    -0.3900 c          1 4B5       0.651100
      3 O03         -5.8360     1.4210    -1.4050 os         1 4B5      -0.480100
      4 C02         -6.4830     2.7140    -1.2840 c3         1 4B5       0.225000
      5 C01         -7.1580     2.8880    -2.6400 c3         1 4B5      -0.108767
      6 C48         -7.5400     2.6980    -0.1860 c3         1 4B5      -0.108767
      7 C49         -5.4560     3.8200    -1.0750 c3         1 4B5      -0.108767
      8 N05         -4.7730    -0.3890    -0.7560 ns         1 4B5      -0.499900
      9 C06         -4.2940    -1.3680     0.1940 c3         1 4B5       0.091700
     10 C07         -2.9030    -1.8870    -0.1900 c3         1 4B5       0.165300
     11 O39         -2.9440    -2.6090    -1.4050 oh         1 4B5      -0.664000
     12 C40         -5.3160    -2.5050     0.3430 c3         1 4B5      -0.050100
     13 C41         -6.6440    -1.9830     0.8120 ca         1 4B5      -0.084300
     14 C42         -7.6530    -1.6700    -0.0960 ca         1 4B5      -0.101500
     15 C43         -6.8730    -1.7410     2.1650 ca         1 4B5      -0.101500
     16 C44         -8.8560    -1.1240     0.3330 ca         1 4B5      -0.108000
     17 C45         -8.0740    -1.1990     2.6000 ca         1 4B5      -0.108000
     18 C46         -9.0690    -0.8850     1.6830 ca         1 4B5      -0.109000
     19 C08         -1.8780    -0.7570    -0.2100 c3         1 4B5      -0.103400
     20 C09         -0.4180    -1.1980    -0.0710 c3         1 4B5      -0.131700
     21 C10          0.4740     0.0300    -0.0150 c          1 4B5       0.606100
     22 O31          0.4130     0.8960    -0.8780 o          1 4B5      -0.617100
     23 C32          0.0900    -2.0910    -1.2230 c3         1 4B5      -0.027100
     24 C33          1.5590    -2.3840    -1.0950 ca         1 4B5      -0.092300
     25 C34          2.5060    -1.6100    -1.7620 ca         1 4B5      -0.107000
     26 C35          2.0070    -3.3950    -0.2470 ca         1 4B5      -0.107000
     27 C36          3.8640    -1.8280    -1.5770 ca         1 4B5      -0.106000
     28 C37          3.3650    -3.6200    -0.0640 ca         1 4B5      -0.106000
     29 C38          4.2970    -2.8340    -0.7270 ca         1 4B5      -0.108000
     30 N11          1.3380     0.0680     1.0120 ns         1 4B5      -0.485900
     31 C12          2.4250     1.0110     1.1200 c3         1 4B5       0.038700
     32 C13          3.7200     0.2390     1.3370 c          1 4B5       0.590100
     33 O26          3.7820    -0.6840     2.1350 o          1 4B5      -0.610100
     34 C27          2.2510     1.9760     2.3010 c3         1 4B5      -0.084400
     35 C28          1.0220     2.8790     2.2200 c3         1 4B5      -0.055700
     36 C30          0.8630     3.6470     3.5290 c3         1 4B5      -0.090100
     37 C29          1.0880     3.8460     1.0420 c3         1 4B5      -0.090100
     38 N14          4.7850     0.6850     0.6590 ns         1 4B5      -0.478900
     39 C15          6.1050     0.1990     0.9470 c3         1 4B5       0.037700
     40 C16          6.4820     0.5250     2.3960 c          1 4B5       0.595100
     41 O18          6.1040     1.5510     2.9370 o          1 4B5      -0.599100
     42 C19          7.1300     0.8500     0.0070 c3         1 4B5      -0.042100
     43 C20          6.9380     0.4340    -1.4250 ca         1 4B5      -0.086300
     44 C22          7.4250    -0.7940    -1.8680 ca         1 4B5      -0.108000
     45 C21          6.2530     1.2430    -2.3280 ca         1 4B5      -0.108000
     46 C24          7.2290    -1.2080    -3.1770 ca         1 4B5      -0.105500
     47 C23          6.0500     0.8310    -3.6390 ca         1 4B5      -0.105500
     48 C25          6.5370    -0.3960    -4.0680 ca         1 4B5      -0.106000
     49 N17          7.2950    -0.3690     2.9700 nt         1 4B5      -0.601000
     50 H19         -7.9000     2.1070    -2.8160 hc         1 4B5       0.049367
     51 H20         -7.6710     3.8490    -2.6760 hc         1 4B5       0.049367
     52 H21         -6.4320     2.8650    -3.4540 hc         1 4B5       0.049367
     53 H47         -7.1070     2.6900     0.8120 hc         1 4B5       0.049367
     54 H48         -8.1620     3.5900    -0.2750 hc         1 4B5       0.049367
     55 H49         -8.1900     1.8270    -0.2840 hc         1 4B5       0.049367
     56 H50         -4.6900     3.7930    -1.8520 hc         1 4B5       0.049367
     57 H51         -5.9520     4.7890    -1.1350 hc         1 4B5       0.049367
     58 H52         -4.9690     3.7570    -0.1040 hc         1 4B5       0.049367
     59 H24         -5.0990    -0.7340    -1.6470 hn         1 4B5       0.315500
     60 H18         -4.1990    -0.8680     1.1590 h1         1 4B5       0.088700
     61 H17         -2.6180    -2.6130     0.5810 h1         1 4B5       0.070700
     62 H39         -2.9070    -1.9830    -2.1350 ho         1 4B5       0.446000
     63 H40         -5.4280    -3.0230    -0.6130 hc         1 4B5       0.059700
     64 H41         -4.9210    -3.2350     1.0530 hc         1 4B5       0.059700
     65 H42         -7.5010    -1.8590    -1.1520 ha         1 4B5       0.109500
     66 H43         -6.1000    -1.9810     2.8880 ha         1 4B5       0.109500
     67 H44         -9.6270    -0.8870    -0.3900 ha         1 4B5       0.112000
     68 H45         -8.2340    -1.0220     3.6560 ha         1 4B5       0.112000
     69 H46        -10.0060    -0.4610     2.0210 ha         1 4B5       0.111000
     70 H15         -2.0000    -0.1610    -1.1200 hc         1 4B5       0.070700
     71 H16         -2.1000    -0.0790     0.6200 hc         1 4B5       0.070700
     72 H14         -0.3210    -1.7670     0.8610 hc         1 4B5       0.054700
     73 H32         -0.4780    -3.0210    -1.2200 hc         1 4B5       0.063700
     74 H33         -0.1170    -1.5990    -2.1770 hc         1 4B5       0.063700
     75 H34          2.1760    -0.8190    -2.4240 ha         1 4B5       0.114500
     76 H35          1.2860    -4.0100     0.2800 ha         1 4B5       0.114500
     77 H36          4.5840    -1.2100    -2.0970 ha         1 4B5       0.114500
     78 H37          3.6940    -4.4120     0.5980 ha         1 4B5       0.114500
     79 H38          5.3570    -3.0070    -0.5840 ha         1 4B5       0.105000
     80 H25          1.3490    -0.7100     1.6540 hn         1 4B5       0.330500
     81 H13          2.4690     1.5740     0.1870 h1         1 4B5       0.085700
     82 H30          2.2060     1.3850     3.2200 hc         1 4B5       0.058700
     83 H31          3.1530     2.5940     2.3750 hc         1 4B5       0.058700
     84 H7           0.1400     2.2410     2.0970 hc         1 4B5       0.053700
     85 H1           1.7100     4.3160     3.6970 hc         1 4B5       0.034367
     86 H2          -0.0410     4.2590     3.5180 hc         1 4B5       0.034367
     87 H3           0.7960     2.9730     4.3860 hc         1 4B5       0.034367
     88 H4           1.9780     4.4780     1.1080 hc         1 4B5       0.034367
     89 H5           1.1120     3.3260     0.0850 hc         1 4B5       0.034367
     90 H6           0.2170     4.5030     1.0320 hc         1 4B5       0.034367
     91 H26          4.6760     1.4680     0.0350 hn         1 4B5       0.327500
     92 H12          6.1320    -0.8860     0.7980 h1         1 4B5       0.072700
     93 H22          7.0680     1.9370     0.1070 hc         1 4B5       0.063700
     94 H23          8.1280     0.5620     0.3430 hc         1 4B5       0.063700
     95 H8           7.9700    -1.4320    -1.1810 ha         1 4B5       0.109500
     96 H11          5.8810     2.2110    -2.0110 ha         1 4B5       0.109500
     97 H10          7.6170    -2.1640    -3.5020 ha         1 4B5       0.117000
     98 H9           5.5130     1.4720    -4.3260 ha         1 4B5       0.117000
     99 H29          6.3830    -0.7160    -5.0900 ha         1 4B5       0.117000
    100 H27          7.5510    -1.2280     2.5140 hn         1 4B5       0.315000
    101 H28          7.6540    -0.2150     3.8980 hn         1 4B5       0.315000
@<TRIPOS>BOND
     1     1     2 2   
     2     2     3 1   
     3     2     8 1   
     4     3     4 1   
     5     4     5 1   
     6     4     6 1   
     7     4     7 1   
     8     5    50 1   
     9     5    51 1   
    10     5    52 1   
    11     6    53 1   
    12     6    54 1   
    13     6    55 1   
    14     7    56 1   
    15     7    57 1   
    16     7    58 1   
    17     8     9 1   
    18     8    59 1   
    19     9    10 1   
    20     9    12 1   
    21     9    60 1   
    22    10    11 1   
    23    10    19 1   
    24    10    61 1   
    25    11    62 1   
    26    12    13 1   
    27    12    63 1   
    28    12    64 1   
    29    13    14 ar  
    30    13    15 ar  
    31    14    16 ar  
    32    14    65 1   
    33    15    17 ar  
    34    15    66 1   
    35    16    18 ar  
    36    16    67 1   
    37    17    18 ar  
    38    17    68 1   
    39    18    69 1   
    40    19    20 1   
    41    19    70 1   
    42    19    71 1   
    43    20    21 1   
    44    20    23 1   
    45    20    72 1   
    46    21    22 2   
    47    21    30 1   
    48    23    24 1   
    49    23    73 1   
    50    23    74 1   
    51    24    25 ar  
    52    24    26 ar  
    53    25    27 ar  
    54    25    75 1   
    55    26    28 ar  
    56    26    76 1   
    57    27    29 ar  
    58    27    77 1   
    59    28    29 ar  
    60    28    78 1   
    61    29    79 1   
    62    30    31 1   
    63    30    80 1   
    64    31    32 1   
    65    31    34 1   
    66    31    81 1   
    67    32    33 2   
    68    32    38 1   
    69    34    35 1   
    70    34    82 1   
    71    34    83 1   
    72    35    36 1   
    73    35    37 1   
    74    35    84 1   
    75    36    85 1   
    76    36    86 1   
    77    36    87 1   
    78    37    88 1   
    79    37    89 1   
    80    37    90 1   
    81    38    39 1   
    82    38    91 1   
    83    39    40 1   
    84    39    42 1   
    85    39    92 1   
    86    40    41 2   
    87    40    49 1   
    88    42    43 1   
    89    42    93 1   
    90    42    94 1   
    91    43    44 ar  
    92    43    45 ar  
    93    44    46 ar  
    94    44    95 1   
    95    45    47 ar  
    96    45    96 1   
    97    46    48 ar  
    98    46    97 1   
    99    47    48 ar  
   100    47    98 1   
   101    48    99 1   
   102    49   100 1   
   103    49   101 1   
@<TRIPOS>SUBSTRUCTURE
     1 4B5         1 TEMP              0 ****  ****    0 ROOT
