@<TRIPOS>MOLECULE
4B5
  101   103     1     0     0
SMALL
No Charge or Current Charge


@<TRIPOS>ATOM
      1 O47         -3.8930     1.1940     0.9480 o          1 4B5      -0.543000
      2 C04         -4.6030     0.8780     0.0080 c          1 4B5       0.651100
      3 O03         -5.2540     1.7160    -0.8540 os         1 4B5      -0.480100
      4 C02         -5.1550     3.1560    -0.7560 c3         1 4B5       0.225000
      5 C01         -6.0320     3.6790    -1.9150 c3         1 4B5      -0.108767
      6 C48         -5.7350     3.6300     0.6010 c3         1 4B5      -0.108767
      7 C49         -3.6810     3.5910    -0.9710 c3         1 4B5      -0.108767
      8 N05         -4.8290    -0.4060    -0.4000 ns         1 4B5      -0.499900
      9 C06         -4.2550    -1.6040     0.2370 c3         1 4B5       0.091700
     10 C07         -2.9880    -2.1330    -0.5140 c3         1 4B5       0.165300
     11 O39         -3.3590    -2.6090    -1.8180 oh         1 4B5      -0.664000
     12 C40         -5.3430    -2.6860     0.4560 c3         1 4B5      -0.050100
     13 C41         -6.5180    -2.1760     1.2860 ca         1 4B5      -0.084300
     14 C42         -7.7600    -1.9060     0.6770 ca         1 4B5      -0.101500
     15 C43         -6.3660    -1.9620     2.6700 ca         1 4B5      -0.101500
     16 C44         -8.8360    -1.4260     1.4430 ca         1 4B5      -0.108000
     17 C45         -7.4430    -1.4820     3.4360 ca         1 4B5      -0.108000
     18 C46         -8.6780    -1.2140     2.8230 ca         1 4B5      -0.109000
     19 C08         -1.8870    -1.0450    -0.6610 c3         1 4B5      -0.103400
     20 C09         -0.4280    -1.5410    -0.8950 c3         1 4B5      -0.131700
     21 C10          0.5150    -0.3200    -0.8590 c          1 4B5       0.606100
     22 O31          0.4950     0.5570    -1.7110 o          1 4B5      -0.617100
     23 C32         -0.2200    -2.3640    -2.1940 c3         1 4B5      -0.027100
     24 C33          1.2280    -2.7980    -2.3900 ca         1 4B5      -0.092300
     25 C34          1.9950    -2.2640    -3.4450 ca         1 4B5      -0.107000
     26 C35          1.8120    -3.7410    -1.5210 ca         1 4B5      -0.107000
     27 C36          3.3270    -2.6700    -3.6300 ca         1 4B5      -0.106000
     28 C37          3.1460    -4.1440    -1.7040 ca         1 4B5      -0.106000
     29 C38          3.9030    -3.6100    -2.7590 ca         1 4B5      -0.108000
     30 N11          1.3540    -0.2680     0.2310 ns         1 4B5      -0.485900
     31 C12          2.1840     0.8960     0.6210 c3         1 4B5       0.038700
     32 C13          3.5550     0.4160     1.1890 c          1 4B5       0.590100
     33 O26          3.8130    -0.7610     1.4130 o          1 4B5      -0.610100
     34 C27          1.4260     1.7900     1.6510 c3         1 4B5      -0.084400
     35 C28          0.1370     2.4970     1.1390 c3         1 4B5      -0.055700
     36 C30         -0.6470     3.1310     2.3100 c3         1 4B5      -0.090100
     37 C29          0.4340     3.5560     0.0510 c3         1 4B5      -0.090100
     38 N14          4.4610     1.4250     1.4480 ns         1 4B5      -0.478900
     39 C15          5.8260     1.2320     1.9930 c3         1 4B5       0.037700
     40 C16          6.0610     2.1600     3.2230 c          1 4B5       0.595100
     41 O18          5.2590     2.9990     3.6060 o          1 4B5      -0.599100
     42 C19          6.9030     1.4370     0.8950 c3         1 4B5      -0.042100
     43 C20          6.6830     0.5730    -0.3420 ca         1 4B5      -0.086300
     44 C22          7.0410    -0.7890    -0.3270 ca         1 4B5      -0.108000
     45 C21          6.1310     1.1300    -1.5130 ca         1 4B5      -0.108000
     46 C24          6.8600    -1.5830    -1.4730 ca         1 4B5      -0.105500
     47 C23          5.9490     0.3360    -2.6580 ca         1 4B5      -0.105500
     48 C25          6.3200    -1.0180    -2.6400 ca         1 4B5      -0.106000
     49 N17          7.2340     2.0110     3.8810 nt         1 4B5      -0.601000
     50 H19         -7.0700     3.3430    -1.8010 hc         1 4B5       0.049367
     51 H20         -6.0310     4.7750    -1.9420 hc         1 4B5       0.049367
     52 H21         -5.6600     3.3150    -2.8810 hc         1 4B5       0.049367
     53 H47         -5.0650     3.4000     1.4370 hc         1 4B5       0.049367
     54 H48         -5.8840     4.7160     0.5950 hc         1 4B5       0.049367
     55 H49         -6.7060     3.1570     0.7960 hc         1 4B5       0.049367
     56 H50         -3.2550     3.1010    -1.8550 hc         1 4B5       0.049367
     57 H51         -3.6200     4.6750    -1.1230 hc         1 4B5       0.049367
     58 H52         -3.0520     3.3490    -0.1080 hc         1 4B5       0.049367
     59 H24         -5.4680    -0.5140    -1.1760 hn         1 4B5       0.315500
     60 H18         -3.9150    -1.3110     1.2400 h1         1 4B5       0.088700
     61 H17         -2.5750    -2.9580     0.0830 h1         1 4B5       0.070700
     62 H39         -3.7170    -1.8390    -2.3080 ho         1 4B5       0.446000
     63 H40         -5.6960    -3.0510    -0.5150 hc         1 4B5       0.059700
     64 H41         -4.8880    -3.5490     0.9570 hc         1 4B5       0.059700
     65 H42         -7.8910    -2.0640    -0.3910 ha         1 4B5       0.109500
     66 H43         -5.4130    -2.1650     3.1530 ha         1 4B5       0.109500
     67 H44         -9.7920    -1.2180     0.9670 ha         1 4B5       0.112000
     68 H45         -7.3190    -1.3170     4.5050 ha         1 4B5       0.112000
     69 H46         -9.5110    -0.8420     3.4160 ha         1 4B5       0.111000
     70 H15         -2.1680    -0.3400    -1.4530 hc         1 4B5       0.070700
     71 H16         -1.8730    -0.4600     0.2670 hc         1 4B5       0.070700
     72 H14         -0.1740    -2.1890    -0.0480 hc         1 4B5       0.054700
     73 H32         -0.8490    -3.2610    -2.1630 hc         1 4B5       0.063700
     74 H33         -0.5670    -1.7770    -3.0530 hc         1 4B5       0.063700
     75 H34          1.5590    -1.5330    -4.1230 ha         1 4B5       0.114500
     76 H35          1.2310    -4.1660    -0.7050 ha         1 4B5       0.114500
     77 H36          3.9110    -2.2560    -4.4490 ha         1 4B5       0.114500
     78 H37          3.5910    -4.8720    -1.0290 ha         1 4B5       0.114500
     79 H38          4.9350    -3.9250    -2.9020 ha         1 4B5       0.105000
     80 H25          1.3460    -1.0710     0.8480 hn         1 4B5       0.330500
     81 H13          2.4190     1.4870    -0.2730 h1         1 4B5       0.085700
     82 H30          1.1690     1.1630     2.5150 hc         1 4B5       0.058700
     83 H31          2.1030     2.5630     2.0340 hc         1 4B5       0.058700
     84 H7          -0.5230     1.7410     0.6970 hc         1 4B5       0.053700
     85 H1          -0.0480     3.9020     2.8110 hc         1 4B5       0.034367
     86 H2          -1.5740     3.5950     1.9530 hc         1 4B5       0.034367
     87 H3          -0.9180     2.3710     3.0530 hc         1 4B5       0.034367
     88 H4           1.0910     4.3420     0.4410 hc         1 4B5       0.034367
     89 H5           0.9190     3.1090    -0.8230 hc         1 4B5       0.034367
     90 H6          -0.4950     4.0280    -0.2920 hc         1 4B5       0.034367
     91 H26          4.1520     2.3730     1.2680 hn         1 4B5       0.327500
     92 H12          5.9170     0.2040     2.3660 h1         1 4B5       0.072700
     93 H22          6.9230     2.4970     0.6140 hc         1 4B5       0.063700
     94 H23          7.8940     1.2210     1.3130 hc         1 4B5       0.063700
     95 H8           7.4640    -1.2320     0.5720 ha         1 4B5       0.109500
     96 H11          5.8470     2.1800    -1.5380 ha         1 4B5       0.109500
     97 H10          7.1430    -2.6330    -1.4570 ha         1 4B5       0.117000
     98 H9           5.5270     0.7720    -3.5610 ha         1 4B5       0.117000
     99 H29          6.1900    -1.6300    -3.5300 ha         1 4B5       0.117000
    100 H27          7.9030     1.3170     3.5820 hn         1 4B5       0.315000
    101 H28          7.4260     2.5940     4.6820 hn         1 4B5       0.315000
@<TRIPOS>BOND
     1     1     2 2   
     2     2     3 1   
     3     2     8 1   
     4     3     4 1   
     5     4     5 1   
     6     4     6 1   
     7     4     7 1   
     8     5    50 1   
     9     5    51 1   
    10     5    52 1   
    11     6    53 1   
    12     6    54 1   
    13     6    55 1   
    14     7    56 1   
    15     7    57 1   
    16     7    58 1   
    17     8     9 1   
    18     8    59 1   
    19     9    10 1   
    20     9    12 1   
    21     9    60 1   
    22    10    11 1   
    23    10    19 1   
    24    10    61 1   
    25    11    62 1   
    26    12    13 1   
    27    12    63 1   
    28    12    64 1   
    29    13    14 ar  
    30    13    15 ar  
    31    14    16 ar  
    32    14    65 1   
    33    15    17 ar  
    34    15    66 1   
    35    16    18 ar  
    36    16    67 1   
    37    17    18 ar  
    38    17    68 1   
    39    18    69 1   
    40    19    20 1   
    41    19    70 1   
    42    19    71 1   
    43    20    21 1   
    44    20    23 1   
    45    20    72 1   
    46    21    22 2   
    47    21    30 1   
    48    23    24 1   
    49    23    73 1   
    50    23    74 1   
    51    24    25 ar  
    52    24    26 ar  
    53    25    27 ar  
    54    25    75 1   
    55    26    28 ar  
    56    26    76 1   
    57    27    29 ar  
    58    27    77 1   
    59    28    29 ar  
    60    28    78 1   
    61    29    79 1   
    62    30    31 1   
    63    30    80 1   
    64    31    32 1   
    65    31    34 1   
    66    31    81 1   
    67    32    33 2   
    68    32    38 1   
    69    34    35 1   
    70    34    82 1   
    71    34    83 1   
    72    35    36 1   
    73    35    37 1   
    74    35    84 1   
    75    36    85 1   
    76    36    86 1   
    77    36    87 1   
    78    37    88 1   
    79    37    89 1   
    80    37    90 1   
    81    38    39 1   
    82    38    91 1   
    83    39    40 1   
    84    39    42 1   
    85    39    92 1   
    86    40    41 2   
    87    40    49 1   
    88    42    43 1   
    89    42    93 1   
    90    42    94 1   
    91    43    44 ar  
    92    43    45 ar  
    93    44    46 ar  
    94    44    95 1   
    95    45    47 ar  
    96    45    96 1   
    97    46    48 ar  
    98    46    97 1   
    99    47    48 ar  
   100    47    98 1   
   101    48    99 1   
   102    49   100 1   
   103    49   101 1   
@<TRIPOS>SUBSTRUCTURE
     1 4B5         1 TEMP              0 ****  ****    0 ROOT
