@<TRIPOS>MOLECULE
4B6
   37    39     1     0     0
SMALL
No Charge or Current Charge


@<TRIPOS>ATOM
      1 N1          21.5500    38.4700    11.9480 ns         1 4B6      -0.147000
      2 C4          22.0560    40.0110     8.5420 ca         1 4B6      -0.057000
      3 C5          22.1430    39.8220     9.9330 ca         1 4B6      -0.160000
      4 C6          21.5070    38.7250    10.5490 ca         1 4B6      -0.012000
      5 C7          22.1550    39.1370    13.0060 c          1 4B6       0.609100
      6 C8          21.9260    38.4800    14.3650 c3         1 4B6      -0.182100
      7 C10         21.8250    40.3460     5.5660 cc         1 4B6      -0.282000
      8 C13         19.7750    39.1200     1.1830 ca         1 4B6      -0.075000
      9 C15         19.8470    37.8390    -0.8910 ca         1 4B6      -0.079000
     10 C17         20.0210    36.7020     1.2530 ca         1 4B6       0.163000
     11 C1          20.7860    37.8270     9.7450 ca         1 4B6      -0.160000
     12 C11         20.5780    38.7950     4.2300 cc         1 4B6       0.714300
     13 C12         19.9280    37.9390     1.9390 ca         1 4B6       0.218000
     14 C14         19.7380    39.0710    -0.2230 ca         1 4B6      -0.119000
     15 C16         19.9860    36.6530    -0.1510 ca         1 4B6      -0.145000
     16 C2          20.6980    38.0130     8.3550 ca         1 4B6      -0.057000
     17 C3          21.3320    39.1100     7.7300 ca         1 4B6      -0.150500
     18 C9          21.2400    39.3070     6.2630 cd         1 4B6       0.396500
     19 N2          20.5280    38.4100     5.4760 nd         1 4B6      -0.728000
     20 O1          22.8190    40.1610    12.8980 o          1 4B6      -0.581100
     21 S1          21.5000    40.2260     3.8600 ss         1 4B6      -0.087400
     22 H1          21.0410    37.6400    12.2250 hn         1 4B6       0.149000
     23 H2          19.7400    37.1110     3.8140 hn         1 4B6       0.515000
     24 H3          22.5610    40.8690     8.1070 ha         1 4B6       0.123500
     25 H4          22.7120    40.5430    10.5100 ha         1 4B6       0.128000
     26 H5          22.4110    39.0230    15.1840 hc         1 4B6       0.063367
     27 H6          20.8480    38.3740    14.5320 hc         1 4B6       0.063367
     28 H7          22.2580    37.4370    14.3170 hc         1 4B6       0.063367
     29 H8          22.4240    41.1650     5.9340 h4         1 4B6       0.161000
     30 H9          19.6670    40.0780     1.6820 ha         1 4B6       0.134000
     31 H10         19.8180    37.8050    -1.9790 ha         1 4B6       0.122000
     32 H11         20.2870    36.9730    10.1980 ha         1 4B6       0.128000
     33 H12         19.6200    39.9890    -0.7940 ha         1 4B6       0.125000
     34 H13         20.0640    35.6970    -0.6620 ha         1 4B6       0.137000
     35 H14         20.1290    37.2940     7.7680 ha         1 4B6       0.123500
     36 N3          19.9570    37.9850     3.3430 nu         1 4B6      -0.943900
     37 F1          20.1520    35.5450     1.9460 f          1 4B6      -0.169000
@<TRIPOS>BOND
     1     1     4 1   
     2     1     5 1   
     3     1    22 1   
     4     2     3 ar  
     5     2    17 ar  
     6     2    24 1   
     7     3     4 ar  
     8     3    25 1   
     9     4    11 ar  
    10     5     6 1   
    11     5    20 2   
    12     6    26 1   
    13     6    27 1   
    14     6    28 1   
    15     7    18 2   
    16     7    21 1   
    17     7    29 1   
    18     8    13 ar  
    19     8    14 ar  
    20     8    30 1   
    21     9    14 ar  
    22     9    15 ar  
    23     9    31 1   
    24    10    13 ar  
    25    10    15 ar  
    26    10    37 1   
    27    11    16 ar  
    28    11    32 1   
    29    12    19 2   
    30    12    21 1   
    31    12    36 1   
    32    13    36 1   
    33    14    33 1   
    34    15    34 1   
    35    16    17 ar  
    36    16    35 1   
    37    17    18 1   
    38    18    19 1   
    39    23    36 1   
@<TRIPOS>SUBSTRUCTURE
     1 4B6         1 TEMP              0 ****  ****    0 ROOT
