@<TRIPOS>MOLECULE
4B6
   37    39     1     0     0
SMALL
bcc


@<TRIPOS>ATOM
      1 N1          21.4460    38.6120    11.9030 ns         1 4B6      -0.473100
      2 C4          22.2810    39.5880     8.4140 ca         1 4B6      -0.075000
      3 C5          22.3810    39.5060     9.7930 ca         1 4B6      -0.178000
      4 C6          21.4480    38.7570    10.5150 ca         1 4B6       0.080600
      5 C7          22.3220    39.0930    12.8260 c          1 4B6       0.676100
      6 C8          21.9740    38.7490    14.2530 c3         1 4B6      -0.182100
      7 C10         21.7740    39.9710     5.4630 cc         1 4B6      -0.220400
      8 C13         19.1880    38.9020     1.3740 ca         1 4B6      -0.093000
      9 C15         20.1170    38.2220    -0.7340 ca         1 4B6      -0.097000
     10 C17         20.6090    36.9870     1.2420 ca         1 4B6       0.127900
     11 C1          20.4350    38.1000     9.8110 ca         1 4B6      -0.178000
     12 C11         20.3750    38.3740     4.3020 cc         1 4B6       0.714300
     13 C12         19.8230    37.8400     2.0090 ca         1 4B6       0.079600
     14 C14         19.3390    39.0990     0.0100 ca         1 4B6      -0.137000
     15 C16         20.7550    37.1530    -0.1200 ca         1 4B6      -0.163000
     16 C2          20.3490    38.1900     8.4360 ca         1 4B6      -0.075000
     17 C3          21.2680    38.9450     7.7050 ca         1 4B6      -0.150500
     18 C9          21.1600    39.0450     6.2470 cd         1 4B6       0.461800
     19 N2          20.3630    38.1500     5.5750 nd         1 4B6      -0.728000
     20 O1          23.3060    39.7550    12.5500 o          1 4B6      -0.581100
     21 S1          21.3660    39.7170     3.8040 ss         1 4B6      -0.232300
     22 H1          20.6780    38.0680    12.2650 hn         1 4B6       0.315500
     23 H2          19.3400    36.7480     3.7250 hn         1 4B6       0.459800
     24 H3          23.0320    40.1640     7.8870 ha         1 4B6       0.141500
     25 H4          23.1870    40.0170    10.2920 ha         1 4B6       0.146000
     26 H5          22.8220    38.2460    14.7180 hc         1 4B6       0.063367
     27 H6          21.8000    39.6700    14.8080 hc         1 4B6       0.063367
     28 H7          21.0960    38.1150    14.3570 hc         1 4B6       0.063367
     29 H8          22.4160    40.7890     5.7500 h4         1 4B6       0.179000
     30 H9          18.5680    39.5660     1.9620 ha         1 4B6       0.152000
     31 H10         20.2280    38.3650    -1.8010 ha         1 4B6       0.140000
     32 H11         19.7010    37.5110    10.3490 ha         1 4B6       0.146000
     33 H12         18.8410    39.9290    -0.4720 ha         1 4B6       0.143000
     34 H13         21.3660    36.4640    -0.6880 ha         1 4B6       0.155000
     35 H14         19.5510    37.6710     7.9230 ha         1 4B6       0.141500
     36 N3          19.6860    37.6380     3.3950 nu         1 4B6      -0.750300
     37 F1          21.2350    35.9740     1.8530 f          1 4B6      -0.133900
@<TRIPOS>BOND
     1     1     4 1   
     2     1     5 1   
     3     1    22 1   
     4     2     3 ar  
     5     2    17 ar  
     6     2    24 1   
     7     3     4 ar  
     8     3    25 1   
     9     4    11 ar  
    10     5     6 1   
    11     5    20 2   
    12     6    26 1   
    13     6    27 1   
    14     6    28 1   
    15     7    18 2   
    16     7    21 1   
    17     7    29 1   
    18     8    13 ar  
    19     8    14 ar  
    20     8    30 1   
    21     9    14 ar  
    22     9    15 ar  
    23     9    31 1   
    24    10    13 ar  
    25    10    15 ar  
    26    10    37 1   
    27    11    16 ar  
    28    11    32 1   
    29    12    19 2   
    30    12    21 1   
    31    12    36 1   
    32    13    36 1   
    33    14    33 1   
    34    15    34 1   
    35    16    17 ar  
    36    16    35 1   
    37    17    18 1   
    38    18    19 1   
    39    23    36 1   
@<TRIPOS>SUBSTRUCTURE
     1 4B6         1 TEMP              0 ****  ****    0 ROOT
