@<TRIPOS>MOLECULE
4B7
   67    71     1     0     0
SMALL
No Charge or Current Charge


@<TRIPOS>ATOM
      1 O1           3.5810     3.5130     0.5210 o          1 4B7      -0.576100
      2 C1           3.0610     2.4320     0.2770 c          1 4B7       0.665700
      3 N1           3.7540     1.2760    -0.0530 ns         1 4B7      -0.141000
      4 C2           5.1400     0.9970    -0.2060 ca         1 4B7      -0.016000
      5 C13          5.5040    -0.3240    -0.5310 ca         1 4B7      -0.143500
      6 C12          6.8550    -0.6770    -0.6990 ca         1 4B7      -0.089500
      7 C5           7.8610     0.2930    -0.5330 ca         1 4B7       0.069100
      8 O2           9.1910    -0.0200    -0.7040 os         1 4B7      -0.253200
      9 C6           9.7380    -1.2160    -0.2950 ca         1 4B7       0.135100
     10 C11          9.3490    -1.8180     0.9180 ca         1 4B7      -0.161000
     11 C10          9.9330    -3.0320     1.3200 ca         1 4B7      -0.079000
     12 C9          10.9120    -3.6400     0.5140 ca         1 4B7      -0.144000
     13 C8          11.3110    -3.0330    -0.6900 ca         1 4B7      -0.079000
     14 C7          10.7260    -1.8190    -1.0910 ca         1 4B7      -0.161000
     15 C4           7.5070     1.6150    -0.2230 ca         1 4B7      -0.089500
     16 C3           6.1550     1.9680    -0.0550 ca         1 4B7      -0.143500
     17 C14          1.6040     2.2310     0.3090 cc         1 4B7      -0.338600
     18 C15          0.7290     3.2440     0.6140 cd         1 4B7       0.392900
     19 N2          -0.6090     2.8720     0.5960 nd         1 4B7      -0.662000
     20 C16         -0.7180     1.5990     0.2810 cc         1 4B7       0.747300
     21 S            0.7670     0.7350    -0.0210 ss         1 4B7      -0.121400
     22 N3          -1.9340     0.9840     0.1950 nu         1 4B7      -0.899800
     23 C17         -3.2520     1.3780     0.3690 ca         1 4B7       0.399900
     24 C27         -4.2610     0.4320     0.1850 ca         1 4B7      -0.360000
     25 C20         -5.5900     0.8480     0.3630 ca         1 4B7       0.423900
     26 N5          -5.8730     2.1210     0.6960 nb         1 4B7      -0.286000
     27 C18         -4.8320     2.9610     0.8490 ca         1 4B7       0.211300
     28 C19         -5.1600     4.3920     1.2330 c3         1 4B7      -0.135400
     29 N4          -3.5310     2.6470     0.7040 nb         1 4B7      -0.231000
     30 N6          -6.6890    -0.0280     0.2070 nh         1 4B7      -0.777300
     31 C26         -7.9810     0.4580    -0.3890 c6         1 4B7       0.222300
     32 C25         -9.2100    -0.4250     0.0000 c6         1 4B7       0.150800
     33 N7          -8.9970    -1.8800    -0.2740 n3         1 4B7      -0.701600
     34 C22         -7.7620    -2.3370     0.4300 c6         1 4B7       0.150800
     35 C21         -6.4930    -1.5080     0.0530 c6         1 4B7       0.222300
     36 C23        -10.1790    -2.7320     0.0510 c3         1 4B7       0.169800
     37 C24        -11.4890    -2.4460    -0.7460 c3         1 4B7       0.165600
     38 O3         -11.3130    -2.6570    -2.1590 oh         1 4B7      -0.642000
     39 H2           3.1560     0.4780    -0.2170 hn         1 4B7       0.152000
     40 H11          4.7370    -1.0850    -0.6590 ha         1 4B7       0.133000
     41 H10          7.1170    -1.7000    -0.9600 ha         1 4B7       0.130500
     42 H9           8.6000    -1.3460     1.5490 ha         1 4B7       0.126000
     43 H8           9.6310    -3.4990     2.2550 ha         1 4B7       0.112500
     44 H7          11.3640    -4.5790     0.8250 ha         1 4B7       0.114000
     45 H6          12.0720    -3.5020    -1.3100 ha         1 4B7       0.112500
     46 H5          11.0340    -1.3470    -2.0210 ha         1 4B7       0.126000
     47 H4           8.2830     2.3680    -0.1080 ha         1 4B7       0.130500
     48 H3           5.9220     3.0000     0.1870 ha         1 4B7       0.133000
     49 H12          0.9960     4.2660     0.8560 h4         1 4B7       0.064100
     50 H13         -1.8290     0.0080    -0.0580 hn         1 4B7       0.511000
     51 H30         -4.0140    -0.5850    -0.0970 ha         1 4B7       0.126000
     52 H14         -5.4000     4.4630     2.3000 hc         1 4B7       0.060700
     53 H15         -4.3190     5.0680     1.0340 hc         1 4B7       0.060700
     54 H16         -6.0220     4.7660     0.6680 hc         1 4B7       0.060700
     55 H28         -8.2050     1.4880    -0.0760 h1         1 4B7       0.060450
     56 H29         -7.8960     0.4700    -1.4860 h1         1 4B7       0.060450
     57 H27         -9.4210    -0.2720     1.0690 h1         1 4B7       0.040950
     58 H26        -10.0820    -0.0490    -0.5540 h1         1 4B7       0.040950
     59 H19         -7.9060    -2.2700     1.5190 h1         1 4B7       0.040950
     60 H20         -7.5630    -3.3950     0.2020 h1         1 4B7       0.040950
     61 H17         -6.2170    -1.7390    -0.9870 h1         1 4B7       0.060450
     62 H18         -5.6720    -1.8570     0.6960 h1         1 4B7       0.060450
     63 H22         -9.9210    -3.7870    -0.1150 h1         1 4B7       0.038200
     64 H21        -10.4130    -2.6360     1.1200 h1         1 4B7       0.038200
     65 H23        -12.2740    -3.1140    -0.3680 h1         1 4B7       0.016700
     66 H24        -11.8200    -1.4180    -0.5530 h1         1 4B7       0.016700
     67 H25        -12.1620    -2.4150    -2.5900 ho         1 4B7       0.437000
@<TRIPOS>BOND
     1     1     2 2   
     2     2     3 1   
     3     2    17 1   
     4     3     4 1   
     5     3    39 1   
     6     4     5 ar  
     7     4    16 ar  
     8     5     6 ar  
     9     5    40 1   
    10     6     7 ar  
    11     6    41 1   
    12     7     8 1   
    13     7    15 ar  
    14     8     9 1   
    15     9    10 ar  
    16     9    14 ar  
    17    10    11 ar  
    18    10    42 1   
    19    11    12 ar  
    20    11    43 1   
    21    12    13 ar  
    22    12    44 1   
    23    13    14 ar  
    24    13    45 1   
    25    14    46 1   
    26    15    16 ar  
    27    15    47 1   
    28    16    48 1   
    29    17    18 2   
    30    17    21 1   
    31    18    19 1   
    32    18    49 1   
    33    19    20 2   
    34    20    21 1   
    35    20    22 1   
    36    22    23 1   
    37    22    50 1   
    38    23    24 ar  
    39    23    29 ar  
    40    24    25 ar  
    41    24    51 1   
    42    25    26 ar  
    43    25    30 1   
    44    26    27 ar  
    45    27    28 1   
    46    27    29 ar  
    47    28    52 1   
    48    28    53 1   
    49    28    54 1   
    50    30    31 1   
    51    30    35 1   
    52    31    32 1   
    53    31    55 1   
    54    31    56 1   
    55    32    33 1   
    56    32    57 1   
    57    32    58 1   
    58    33    34 1   
    59    33    36 1   
    60    34    35 1   
    61    34    59 1   
    62    34    60 1   
    63    35    61 1   
    64    35    62 1   
    65    36    37 1   
    66    36    63 1   
    67    36    64 1   
    68    37    38 1   
    69    37    65 1   
    70    37    66 1   
    71    38    67 1   
@<TRIPOS>SUBSTRUCTURE
     1 4B7         1 TEMP              0 ****  ****    0 ROOT
