@<TRIPOS>MOLECULE
4B7
   67    71     1     0     0
SMALL
abcg2


@<TRIPOS>ATOM
      1 O1           3.5000     2.5130     1.0320 o          1 4B7      -0.576100
      2 C1           2.9850     1.5530     0.4840 c          1 4B7       0.665700
      3 N1           3.6820     0.5750    -0.1500 ns         1 4B7      -0.141000
      4 C2           5.0620     0.4680    -0.3470 ca         1 4B7      -0.016000
      5 C13          5.5110    -0.6880    -0.9910 ca         1 4B7      -0.143500
      6 C12          6.8550    -0.8850    -1.2490 ca         1 4B7      -0.089500
      7 C5           7.7740     0.0800    -0.8640 ca         1 4B7       0.069100
      8 O2           9.1050    -0.0760    -1.1580 os         1 4B7      -0.253200
      9 C6           9.8800    -0.8620    -0.3580 ca         1 4B7       0.135100
     10 C11          9.4350    -1.4280     0.8310 ca         1 4B7      -0.161000
     11 C10         10.3090    -2.2080     1.5800 ca         1 4B7      -0.079000
     12 C9          11.6120    -2.4260     1.1590 ca         1 4B7      -0.144000
     13 C8          12.0450    -1.8490    -0.0300 ca         1 4B7      -0.079000
     14 C7          11.1870    -1.0710    -0.7900 ca         1 4B7      -0.161000
     15 C4           7.3450     1.2270    -0.2220 ca         1 4B7      -0.089500
     16 C3           5.9960     1.4310     0.0360 ca         1 4B7      -0.143500
     17 C14          1.5220     1.4020     0.4820 cc         1 4B7      -0.338600
     18 C15          0.6660     2.1930     1.1880 cd         1 4B7       0.392900
     19 N2          -0.6540     1.9090     1.0940 nd         1 4B7      -0.662000
     20 C16         -0.8540     0.9010     0.3010 cc         1 4B7       0.747300
     21 S            0.5940     0.2310    -0.4000 ss         1 4B7      -0.121400
     22 N3          -2.0460     0.3340    -0.0200 nu         1 4B7      -0.899800
     23 C17         -3.3120     0.8820     0.0910 ca         1 4B7       0.399900
     24 C27         -4.3960     0.0550    -0.1580 ca         1 4B7      -0.360000
     25 C20         -5.6650     0.6460    -0.0690 ca         1 4B7       0.423900
     26 N5          -5.7720     1.9530     0.2280 nb         1 4B7      -0.286000
     27 C18         -4.6670     2.6370     0.4490 ca         1 4B7       0.211300
     28 C19         -4.8130     4.0810     0.8130 c3         1 4B7      -0.135400
     29 N4          -3.4250     2.1670     0.3960 nb         1 4B7      -0.231000
     30 N6          -6.8170    -0.0370    -0.2540 nh         1 4B7      -0.777300
     31 C26         -8.0890     0.6460    -0.4160 c6         1 4B7       0.222300
     32 C25         -9.2050    -0.1140     0.2730 c6         1 4B7       0.150800
     33 N7          -9.2700    -1.4800    -0.2050 n3         1 4B7      -0.701600
     34 C22         -8.0080    -2.1420     0.0520 c6         1 4B7       0.150800
     35 C21         -6.8590    -1.4320    -0.6420 c6         1 4B7       0.222300
     36 C23        -10.3770    -2.2280     0.3570 c3         1 4B7       0.169800
     37 C24        -11.7430    -1.7530    -0.0940 c3         1 4B7       0.165600
     38 O3         -11.8240    -1.8220    -1.4990 oh         1 4B7      -0.642000
     39 H2           3.1600    -0.2090    -0.5130 hn         1 4B7       0.152000
     40 H11          4.7990    -1.4450    -1.2980 ha         1 4B7       0.133000
     41 H10          7.1810    -1.7860    -1.7530 ha         1 4B7       0.130500
     42 H9           8.4240    -1.2710     1.1840 ha         1 4B7       0.126000
     43 H8           9.9570    -2.6470     2.5040 ha         1 4B7       0.112500
     44 H7          12.2830    -3.0370     1.7470 ha         1 4B7       0.114000
     45 H6          13.0590    -2.0060    -0.3720 ha         1 4B7       0.112500
     46 H5          11.5230    -0.6230    -1.7170 ha         1 4B7       0.126000
     47 H4           8.0620     1.9820     0.0760 ha         1 4B7       0.130500
     48 H3           5.6910     2.3370     0.5320 ha         1 4B7       0.133000
     49 H12          0.9880     3.0090     1.8200 h4         1 4B7       0.064100
     50 H13         -2.0110    -0.5900    -0.4260 hn         1 4B7       0.511000
     51 H30         -4.2420    -0.9820    -0.4140 ha         1 4B7       0.126000
     52 H14         -4.6030     4.2190     1.8760 hc         1 4B7       0.060700
     53 H15         -4.0990     4.6940     0.2640 hc         1 4B7       0.060700
     54 H16         -5.8210     4.4380     0.6170 hc         1 4B7       0.060700
     55 H28         -8.0150     1.6470    -0.0040 h1         1 4B7       0.060450
     56 H29         -8.3200     0.7400    -1.4840 h1         1 4B7       0.060450
     57 H27         -9.0550    -0.0720     1.3670 h1         1 4B7       0.040950
     58 H26        -10.1380     0.4060     0.0550 h1         1 4B7       0.040950
     59 H19         -7.7890    -2.2030     1.1330 h1         1 4B7       0.040950
     60 H20         -8.0560    -3.1660    -0.3230 h1         1 4B7       0.040950
     61 H17         -6.9700    -1.5190    -1.7290 h1         1 4B7       0.060450
     62 H18         -5.9380    -1.9370    -0.3620 h1         1 4B7       0.060450
     63 H22        -10.2570    -3.2750     0.0630 h1         1 4B7       0.038200
     64 H21        -10.3680    -2.2140     1.4610 h1         1 4B7       0.038200
     65 H23        -12.4870    -2.3980     0.3910 h1         1 4B7       0.016700
     66 H24        -11.9370    -0.7360     0.2700 h1         1 4B7       0.016700
     67 H25        -12.7090    -1.5530    -1.7590 ho         1 4B7       0.437000
@<TRIPOS>BOND
     1     1     2 2   
     2     2     3 1   
     3     2    17 1   
     4     3     4 1   
     5     3    39 1   
     6     4     5 ar  
     7     4    16 ar  
     8     5     6 ar  
     9     5    40 1   
    10     6     7 ar  
    11     6    41 1   
    12     7     8 1   
    13     7    15 ar  
    14     8     9 1   
    15     9    10 ar  
    16     9    14 ar  
    17    10    11 ar  
    18    10    42 1   
    19    11    12 ar  
    20    11    43 1   
    21    12    13 ar  
    22    12    44 1   
    23    13    14 ar  
    24    13    45 1   
    25    14    46 1   
    26    15    16 ar  
    27    15    47 1   
    28    16    48 1   
    29    17    18 2   
    30    17    21 1   
    31    18    19 1   
    32    18    49 1   
    33    19    20 2   
    34    20    21 1   
    35    20    22 1   
    36    22    23 1   
    37    22    50 1   
    38    23    24 ar  
    39    23    29 ar  
    40    24    25 ar  
    41    24    51 1   
    42    25    26 ar  
    43    25    30 1   
    44    26    27 ar  
    45    27    28 1   
    46    27    29 ar  
    47    28    52 1   
    48    28    53 1   
    49    28    54 1   
    50    30    31 1   
    51    30    35 1   
    52    31    32 1   
    53    31    55 1   
    54    31    56 1   
    55    32    33 1   
    56    32    57 1   
    57    32    58 1   
    58    33    34 1   
    59    33    36 1   
    60    34    35 1   
    61    34    59 1   
    62    34    60 1   
    63    35    61 1   
    64    35    62 1   
    65    36    37 1   
    66    36    63 1   
    67    36    64 1   
    68    37    38 1   
    69    37    65 1   
    70    37    66 1   
    71    38    67 1   
@<TRIPOS>SUBSTRUCTURE
     1 4B7         1 TEMP              0 ****  ****    0 ROOT
