@<TRIPOS>MOLECULE
4B8
   29    31     1     0     0
SMALL
No Charge or Current Charge


@<TRIPOS>ATOM
      1 CAI         -2.3780     1.4390    -0.0420 ca         1 4B8      -0.019000
      2 CAO         -3.7080     0.9820    -0.0800 ca         1 4B8       0.035500
      3 ClAC        -5.0170     2.1670    -0.0810 cl         1 4B8      -0.173000
      4 CAS         -3.9820    -0.4010    -0.1160 ca         1 4B8       0.186100
      5 OAB         -5.2780    -0.8510    -0.1530 oh         1 4B8      -0.500100
      6 CAP         -2.9110    -1.3190    -0.1140 ca         1 4B8       0.035500
      7 ClAD        -3.2170    -3.0570    -0.1590 cl         1 4B8      -0.173000
      8 CAJ         -1.5830    -0.8600    -0.0760 ca         1 4B8      -0.019000
      9 CAR         -1.3010     0.5240    -0.0400 ca         1 4B8      -0.166500
     10 CAU          0.0830     1.0080     0.0000 cc         1 4B8       0.480500
     11 OAM          1.1020     0.1140     0.0020 os         1 4B8      -0.281000
     12 NAL          0.4940     2.2660     0.0370 nd         1 4B8      -0.353000
     13 NAK          1.8650     2.2160     0.0640 nd         1 4B8      -0.362000
     14 CAT          2.1840     0.9310     0.0430 cc         1 4B8       0.496500
     15 CAQ          3.5310     0.3450     0.0580 ca         1 4B8      -0.191500
     16 CAG          4.6710     1.1780     0.1010 ca         1 4B8      -0.024000
     17 CAE          5.9620     0.6200     0.1150 ca         1 4B8      -0.189000
     18 CAN          6.1250    -0.7730     0.0880 ca         1 4B8       0.169100
     19 OAA          7.3720    -1.3210     0.1020 oh         1 4B8      -0.525100
     20 CAF          5.0020    -1.6080     0.0460 ca         1 4B8      -0.189000
     21 CAH          3.7090    -1.0570     0.0310 ca         1 4B8      -0.024000
     22 H1          -2.1920     2.5100    -0.0140 ha         1 4B8       0.152500
     23 H2          -5.2590    -1.8320    -0.1750 ho         1 4B8       0.488000
     24 H3          -0.7770    -1.5910    -0.0760 ha         1 4B8       0.152500
     25 H4           4.5630     2.2610     0.1220 ha         1 4B8       0.133000
     26 H5           6.8270     1.2770     0.1480 ha         1 4B8       0.128000
     27 H6           8.0290    -0.5930     0.1320 ho         1 4B8       0.472000
     28 H7           5.1300    -2.6870     0.0250 ha         1 4B8       0.128000
     29 H8           2.8510    -1.7260    -0.0020 ha         1 4B8       0.133000
@<TRIPOS>BOND
     1     1     2 ar  
     2     1     9 ar  
     3     1    22 1   
     4     2     3 1   
     5     2     4 ar  
     6     4     5 1   
     7     4     6 ar  
     8     5    23 1   
     9     6     7 1   
    10     6     8 ar  
    11     8     9 ar  
    12     8    24 1   
    13     9    10 1   
    14    10    11 1   
    15    10    12 2   
    16    11    14 1   
    17    12    13 1   
    18    13    14 2   
    19    14    15 1   
    20    15    16 ar  
    21    15    21 ar  
    22    16    17 ar  
    23    16    25 1   
    24    17    18 ar  
    25    17    26 1   
    26    18    19 1   
    27    18    20 ar  
    28    19    27 1   
    29    20    21 ar  
    30    20    28 1   
    31    21    29 1   
@<TRIPOS>SUBSTRUCTURE
     1 4B8         1 TEMP              0 ****  ****    0 ROOT
