@<TRIPOS>MOLECULE
4B8
   29    31     1     0     0
SMALL
bcc


@<TRIPOS>ATOM
      1 CAI         -2.3350     1.4070    -0.0610 ca         1 4B8      -0.037000
      2 CAO         -3.6360     0.9570    -0.1080 ca         1 4B8      -0.056100
      3 CLAC        -4.9390     2.0840    -0.1480 cl         1 4B8      -0.081400
      4 CAS         -3.9420    -0.4070    -0.1260 ca         1 4B8       0.186100
      5 OAB         -5.2170    -0.7700    -0.1730 oh         1 4B8      -0.461100
      6 CAP         -2.8690    -1.3010    -0.0930 ca         1 4B8      -0.056100
      7 CLAD        -3.2170    -2.9940    -0.1090 cl         1 4B8      -0.081400
      8 CAJ         -1.5580    -0.8710    -0.0460 ca         1 4B8      -0.037000
      9 CAR         -1.2840     0.4920    -0.0300 ca         1 4B8      -0.166500
     10 CAU          0.0780     0.9850     0.0180 cc         1 4B8       0.524900
     11 OAM          1.1050     0.1220     0.0130 os         1 4B8      -0.369800
     12 NAL          0.4890     2.2050     0.0660 nd         1 4B8      -0.353000
     13 NAK          1.8520     2.1620     0.0940 nd         1 4B8      -0.362000
     14 CAT          2.1890     0.9160     0.0620 cc         1 4B8       0.540900
     15 CAQ          3.5140     0.3340     0.0690 ca         1 4B8      -0.191500
     16 CAG          4.6300     1.1710     0.1180 ca         1 4B8      -0.042000
     17 CAE          5.9060     0.6470     0.1210 ca         1 4B8      -0.207000
     18 CAN          6.0940    -0.7360     0.0720 ca         1 4B8       0.169100
     19 OAA          7.3090    -1.2990     0.0690 oh         1 4B8      -0.486100
     20 CAF          4.9840    -1.5790     0.0250 ca         1 4B8      -0.207000
     21 CAH          3.7100    -1.0480     0.0230 ca         1 4B8      -0.042000
     22 H1          -2.1380     2.4710    -0.0500 ha         1 4B8       0.170500
     23 H2          -5.3140    -1.7330    -0.1790 ho         1 4B8       0.449000
     24 H3          -0.7650    -1.6060    -0.0230 ha         1 4B8       0.170500
     25 H4           4.5000     2.2450     0.1550 ha         1 4B8       0.151000
     26 H5           6.7590     1.3140     0.1590 ha         1 4B8       0.146000
     27 H6           7.9990    -0.6260     0.0970 ho         1 4B8       0.433000
     28 H7           5.1250    -2.6520    -0.0120 ha         1 4B8       0.146000
     29 H8           2.8680    -1.7270    -0.0160 ha         1 4B8       0.151000
@<TRIPOS>BOND
     1     1     2 ar  
     2     1     9 ar  
     3     1    22 1   
     4     2     3 1   
     5     2     4 ar  
     6     4     5 1   
     7     4     6 ar  
     8     5    23 1   
     9     6     7 1   
    10     6     8 ar  
    11     8     9 ar  
    12     8    24 1   
    13     9    10 1   
    14    10    11 1   
    15    10    12 2   
    16    11    14 1   
    17    12    13 1   
    18    13    14 2   
    19    14    15 1   
    20    15    16 ar  
    21    15    21 ar  
    22    16    17 ar  
    23    16    25 1   
    24    17    18 ar  
    25    17    26 1   
    26    18    19 1   
    27    18    20 ar  
    28    19    27 1   
    29    20    21 ar  
    30    20    28 1   
    31    21    29 1   
@<TRIPOS>SUBSTRUCTURE
     1 4B8         1 TEMP              0 ****  ****    0 ROOT
