@<TRIPOS>MOLECULE
4BA
   27    27     1     0     0
SMALL
No Charge or Current Charge


@<TRIPOS>ATOM
      1 N4C         -0.0660     0.0990     1.6490 n7         1 4BA      -0.872400
      2 C5C         -0.0030     0.4380     3.0810 c3         1 4BA       0.172800
      3 C6C         -0.0180    -0.8480     3.9200 c3         1 4BA      -0.207400
      4 C7C          0.0490    -0.4630     5.4030 c          1 4BA       0.717000
      5 O8C          1.1500    -0.3350     5.9170 o          1 4BA      -0.751500
      6 O9C         -1.0000    -0.2600     5.9960 o          1 4BA      -0.751500
      7 C1D         -0.0210     0.7840    -0.7170 ca         1 4BA      -0.110300
      8 C2D         -1.2290     0.6120    -1.4160 ca         1 4BA      -0.132500
      9 C3D         -1.2250     0.1890    -2.7570 ca         1 4BA      -0.098500
     10 C4D         -0.0080    -0.0720    -3.4310 ca         1 4BA      -0.141600
     11 C5D          1.2030     0.1040    -2.7190 ca         1 4BA      -0.098500
     12 C6D          1.1950     0.5270    -1.3780 ca         1 4BA      -0.132500
     13 C7D         -0.0260     1.2510     0.7340 c3         1 4BA       0.214100
     14 C           -0.0010    -0.5300    -4.8830 c          1 4BA       0.713600
     15 O           -1.0700    -0.6680    -5.4600 o          1 4BA      -0.735000
     16 O2           1.0740    -0.7450    -5.4260 o          1 4BA      -0.735000
     17 HN4          0.7400    -0.4940     1.4290 hn         1 4BA       0.398000
     18 H15         -0.8600     1.0660     3.3630 h1         1 4BA       0.025200
     19 H25          0.9150     1.0010     3.3000 h1         1 4BA       0.025200
     20 H16          0.8730    -1.4180     3.6280 hc         1 4BA       0.023200
     21 H26         -0.9660    -1.3530     3.6950 hc         1 4BA       0.023200
     22 HC2         -2.1760     0.8050    -0.9180 ha         1 4BA       0.094000
     23 HC3         -2.1750     0.0640    -3.2720 ha         1 4BA       0.117000
     24 HC5          2.1580    -0.0870    -3.2040 ha         1 4BA       0.117000
     25 HC6          2.1380     0.6570    -0.8510 ha         1 4BA       0.094000
     26 H17         -0.8940     1.9020     0.9040 h1         1 4BA       0.015200
     27 H27          0.8760     1.8510     0.9190 h1         1 4BA       0.015200
@<TRIPOS>BOND
     1     1     2 1   
     2     1    13 1   
     3     1    17 1   
     4     2     3 1   
     5     2    18 1   
     6     2    19 1   
     7     3     4 1   
     8     3    20 1   
     9     3    21 1   
    10     4     5 1   
    11     4     6 1   
    12     7     8 ar  
    13     7    12 ar  
    14     7    13 1   
    15     8     9 ar  
    16     8    22 1   
    17     9    10 ar  
    18     9    23 1   
    19    10    11 ar  
    20    10    14 1   
    21    11    12 ar  
    22    11    24 1   
    23    12    25 1   
    24    13    26 1   
    25    13    27 1   
    26    14    15 1   
    27    14    16 1   
@<TRIPOS>SUBSTRUCTURE
     1 4BA         1 TEMP              0 ****  ****    0 ROOT
