@<TRIPOS>MOLECULE
4BA
   27    27     1     0     0
SMALL
abcg2


@<TRIPOS>ATOM
      1 N4C          0.0180     0.0600     1.6300 n7         1 4BA      -0.872400
      2 C5C          0.0630     0.4620     3.0260 c3         1 4BA       0.172800
      3 C6C         -0.2390    -0.7130     3.9370 c3         1 4BA      -0.207400
      4 C7C         -0.3010    -0.3810     5.4380 c          1 4BA       0.717000
      5 O8C         -0.3660    -1.3580     6.2130 o          1 4BA      -0.751500
      6 O9C         -0.3020     0.8230     5.7650 o          1 4BA      -0.751500
      7 C1D          0.2200     0.7150    -0.7180 ca         1 4BA      -0.110300
      8 C2D         -0.8970     0.0020    -1.1520 ca         1 4BA      -0.132500
      9 C3D         -1.0330    -0.3640    -2.4820 ca         1 4BA      -0.098500
     10 C4D         -0.0590    -0.0350    -3.4230 ca         1 4BA      -0.141600
     11 C5D          1.0580     0.6720    -2.9880 ca         1 4BA      -0.098500
     12 C6D          1.1970     1.0380    -1.6550 ca         1 4BA      -0.132500
     13 C7D          0.3520     1.1370     0.7210 c3         1 4BA       0.214100
     14 C           -0.2120    -0.4390    -4.8830 c          1 4BA       0.713600
     15 O           -1.2370    -1.0850    -5.1790 o          1 4BA      -0.735000
     16 O2           0.6970    -0.0900    -5.6610 o          1 4BA      -0.735000
     17 HN4          0.6680    -0.7040     1.4820 hn         1 4BA       0.398000
     18 H15         -0.6850     1.2450     3.1760 h1         1 4BA       0.025200
     19 H25          1.0320     0.9070     3.3020 h1         1 4BA       0.025200
     20 H16          0.5020    -1.5050     3.7810 hc         1 4BA       0.023200
     21 H26         -1.1990    -1.1520     3.6430 hc         1 4BA       0.023200
     22 HC2         -1.6630    -0.2700    -0.4360 ha         1 4BA       0.094000
     23 HC3         -1.9090    -0.9150    -2.7980 ha         1 4BA       0.117000
     24 HC5          1.8310     0.9350    -3.6980 ha         1 4BA       0.117000
     25 HC6          2.0800     1.5820    -1.3380 ha         1 4BA       0.094000
     26 H17         -0.3430     1.9620     0.9160 h1         1 4BA       0.015200
     27 H27          1.3590     1.5490     0.8880 h1         1 4BA       0.015200
@<TRIPOS>BOND
     1     1     2 1   
     2     1    13 1   
     3     1    17 1   
     4     2     3 1   
     5     2    18 1   
     6     2    19 1   
     7     3     4 1   
     8     3    20 1   
     9     3    21 1   
    10     4     5 1   
    11     4     6 1   
    12     7     8 ar  
    13     7    12 ar  
    14     7    13 1   
    15     8     9 ar  
    16     8    22 1   
    17     9    10 ar  
    18     9    23 1   
    19    10    11 ar  
    20    10    14 1   
    21    11    12 ar  
    22    11    24 1   
    23    12    25 1   
    24    13    26 1   
    25    13    27 1   
    26    14    15 1   
    27    14    16 1   
@<TRIPOS>SUBSTRUCTURE
     1 4BA         1 TEMP              0 ****  ****    0 ROOT
