@<TRIPOS>MOLECULE
4BB
   43    44     1     0     0
SMALL
bcc


@<TRIPOS>ATOM
      1 CAA          9.3180     0.2570     0.9520 c3         1 4BB      -0.083767
      2 CAY          8.5440    -0.6430    -0.0210 c3         1 4BB      -0.004700
      3 CAB          9.0260    -0.3770    -1.4530 c3         1 4BB      -0.083767
      4 CAC          8.8450    -2.1000     0.3300 c3         1 4BB      -0.083767
      5 CAW          7.0580    -0.3180     0.0640 ca         1 4BB      -0.033300
      6 CAM          6.6180     0.9860    -0.1850 ca         1 4BB      -0.136500
      7 CAK          5.2800     1.3240    -0.1210 ca         1 4BB      -0.086000
      8 CAL          6.0920    -1.2700     0.3770 ca         1 4BB      -0.136500
      9 CAJ          4.7440    -0.9430     0.4290 ca         1 4BB      -0.086000
     10 CAS          4.3200     0.3570     0.1750 ca         1 4BB      -0.163600
     11 CAQ          2.8960     0.7770     0.2430 c          1 4BB       0.702700
     12 OAD          2.5590     1.9180     0.4930 o          1 4BB      -0.545100
     13 NAP          1.9910    -0.2110    -0.0060 ns         1 4BB      -0.335900
     14 NAO          0.6810     0.0630     0.0700 n2         1 4BB      -0.492300
     15 CAI         -0.1720    -0.8370    -0.2260 ce         1 4BB       0.424800
     16 CAT         -1.5900    -0.5470    -0.1480 ca         1 4BB      -0.297900
     17 CAN         -2.5060    -1.5490    -0.4610 ca         1 4BB       0.012000
     18 CAR         -3.8620    -1.3220    -0.4040 ca         1 4BB      -0.123900
     19 BRAG        -5.0720    -2.6970    -0.8300 br         1 4BB      -0.068100
     20 CAU         -4.3630    -0.0670    -0.0310 ca         1 4BB       0.259100
     21 OAE         -5.6810     0.0860    -0.0000 oh         1 4BB      -0.463100
     22 CAX         -3.4450     0.9380     0.2820 ca         1 4BB      -0.201900
     23 BRAH        -4.0600     2.6400     0.7900 br         1 4BB      -0.067100
     24 CAV         -2.0670     0.7230     0.2320 ca         1 4BB       0.282100
     25 OAF         -1.2600     1.7260     0.5420 oh         1 4BB      -0.475100
     26 HAA          9.1700     1.3160     0.7400 hc         1 4BB       0.037589
     27 HAAA         9.0130     0.0760     1.9840 hc         1 4BB       0.037589
     28 HAAB        10.3880     0.0540     0.8770 hc         1 4BB       0.037589
     29 HAB         10.0900    -0.6070    -1.5430 hc         1 4BB       0.037589
     30 HABA         8.4870    -0.9940    -2.1740 hc         1 4BB       0.037589
     31 HABB         8.8920     0.6660    -1.7440 hc         1 4BB       0.037589
     32 HAC          8.5260    -2.3510     1.3430 hc         1 4BB       0.037589
     33 HACA         8.3690    -2.7990    -0.3590 hc         1 4BB       0.037589
     34 HACB         9.9210    -2.2710     0.2740 hc         1 4BB       0.037589
     35 HAM          7.3330     1.7610    -0.4310 ha         1 4BB       0.137500
     36 HAK          4.9780     2.3450    -0.3140 ha         1 4BB       0.140500
     37 HAL          6.3750    -2.2900     0.5960 ha         1 4BB       0.137500
     38 HAJ          4.0400    -1.7200     0.7010 ha         1 4BB       0.140500
     39 HNAP         2.2880    -1.1210    -0.3360 hn         1 4BB       0.314500
     40 HAI          0.1230    -1.8380    -0.5450 h4         1 4BB      -0.007200
     41 HAN         -2.1330    -2.5220    -0.7540 ha         1 4BB       0.146000
     42 HOAE        -5.9460     0.9740     0.2740 ho         1 4BB       0.451000
     43 HOAF        -0.3230     1.4190     0.4610 ho         1 4BB       0.493000
@<TRIPOS>BOND
     1     1     2 1   
     2     1    26 1   
     3     1    27 1   
     4     1    28 1   
     5     2     3 1   
     6     2     4 1   
     7     2     5 1   
     8     3    29 1   
     9     3    30 1   
    10     3    31 1   
    11     4    32 1   
    12     4    33 1   
    13     4    34 1   
    14     5     6 ar  
    15     5     8 ar  
    16     6     7 ar  
    17     6    35 1   
    18     7    10 ar  
    19     7    36 1   
    20     8     9 ar  
    21     8    37 1   
    22     9    10 ar  
    23     9    38 1   
    24    10    11 1   
    25    11    12 2   
    26    11    13 1   
    27    13    14 1   
    28    13    39 1   
    29    14    15 2   
    30    15    16 1   
    31    15    40 1   
    32    16    17 ar  
    33    16    24 ar  
    34    17    18 ar  
    35    17    41 1   
    36    18    19 1   
    37    18    20 ar  
    38    20    21 1   
    39    20    22 ar  
    40    21    42 1   
    41    22    23 1   
    42    22    24 ar  
    43    24    25 1   
    44    25    43 1   
@<TRIPOS>SUBSTRUCTURE
     1 4BB         1 TEMP              0 ****  ****    0 ROOT
