@<TRIPOS>MOLECULE
4BB
   43    44     1     0     0
SMALL
No Charge or Current Charge


@<TRIPOS>ATOM
      1 CAA          9.4010     0.5380     0.5840 c3         1 4BB      -0.083767
      2 CAY          8.6350    -0.6550    -0.0470 c3         1 4BB      -0.004700
      3 CAB          9.0850    -0.8340    -1.5230 c3         1 4BB      -0.083767
      4 CAC          9.0310    -1.9420     0.7310 c3         1 4BB      -0.083767
      5 CAW          7.1100    -0.3650    -0.0080 ca         1 4BB      -0.033300
      6 CAM          6.5990     0.7730    -0.6720 ca         1 4BB      -0.118500
      7 CAK          5.2270     1.0710    -0.6610 ca         1 4BB      -0.068000
      8 CAL          6.1870    -1.1950     0.6710 ca         1 4BB      -0.118500
      9 CAJ          4.8120    -0.9000     0.6850 ca         1 4BB      -0.068000
     10 CAS          4.3090     0.2410     0.0170 ca         1 4BB      -0.163600
     11 CAQ          2.8320     0.5970     0.0060 c          1 4BB       0.635700
     12 OAD          2.4130     1.5890    -0.5810 o          1 4BB      -0.545100
     13 NAP          1.9750    -0.2650     0.6940 ns         1 4BB      -0.268900
     14 NAO          0.6000    -0.0850     0.7890 n2         1 4BB      -0.492300
     15 CAI         -0.1680    -0.5150    -0.1670 ce         1 4BB       0.424800
     16 CAT         -1.6480    -0.3060    -0.1500 ca         1 4BB      -0.297900
     17 CAN         -2.3930    -0.8390    -1.2210 ca         1 4BB       0.030000
     18 CAR         -3.7860    -0.6830    -1.2720 ca         1 4BB      -0.123900
     19 BrAG        -4.7520    -1.4300    -2.7550 br         1 4BB      -0.068100
     20 CAU         -4.4550     0.0100    -0.2490 ca         1 4BB       0.259100
     21 OAE         -5.8090     0.1630    -0.2970 oh         1 4BB      -0.502100
     22 CAX         -3.7280     0.5480     0.8260 ca         1 4BB      -0.201900
     23 BrAH        -4.6470     1.5010     2.2300 br         1 4BB      -0.067100
     24 CAV         -2.3300     0.3900     0.8750 ca         1 4BB       0.282100
     25 OAF         -1.6440     0.9200     1.9230 oh         1 4BB      -0.514100
     26 HAA          9.2400     1.4660     0.0230 hc         1 4BB       0.037589
     27 HAAA         9.0710     0.7070     1.6160 hc         1 4BB       0.037589
     28 HAAB        10.4810     0.3470     0.6010 hc         1 4BB       0.037589
     29 HAB         10.1540    -1.0740    -1.5810 hc         1 4BB       0.037589
     30 HABA         8.5280    -1.6490    -2.0010 hc         1 4BB       0.037589
     31 HABB         8.9200     0.0770    -2.1100 hc         1 4BB       0.037589
     32 HAC          8.7610    -1.8620     1.7910 hc         1 4BB       0.037589
     33 HACA         8.5390    -2.8270     0.3100 hc         1 4BB       0.037589
     34 HACB        10.1130    -2.1130     0.6800 hc         1 4BB       0.037589
     35 HAM          7.2670     1.4420    -1.2080 ha         1 4BB       0.119500
     36 HAK          4.8810     1.9590    -1.1870 ha         1 4BB       0.122500
     37 HAL          6.5110    -2.0850     1.2020 ha         1 4BB       0.119500
     38 HAJ          4.1550    -1.5760     1.2240 ha         1 4BB       0.122500
     39 HNAP         2.4220    -1.0570     1.1430 hn         1 4BB       0.314500
     40 HAI          0.2450    -1.0510    -1.0250 h4         1 4BB      -0.007200
     41 HAN         -1.8900    -1.3800    -2.0220 ha         1 4BB       0.128000
     42 HOAE        -6.0720     0.6690     0.5000 ho         1 4BB       0.490000
     43 HOAF        -0.6950     0.6930     1.7610 ho         1 4BB       0.532000
@<TRIPOS>BOND
     1     1     2 1   
     2     1    26 1   
     3     1    27 1   
     4     1    28 1   
     5     2     3 1   
     6     2     4 1   
     7     2     5 1   
     8     3    29 1   
     9     3    30 1   
    10     3    31 1   
    11     4    32 1   
    12     4    33 1   
    13     4    34 1   
    14     5     6 ar  
    15     5     8 ar  
    16     6     7 ar  
    17     6    35 1   
    18     7    10 ar  
    19     7    36 1   
    20     8     9 ar  
    21     8    37 1   
    22     9    10 ar  
    23     9    38 1   
    24    10    11 1   
    25    11    12 2   
    26    11    13 1   
    27    13    14 1   
    28    13    39 1   
    29    14    15 2   
    30    15    16 1   
    31    15    40 1   
    32    16    17 ar  
    33    16    24 ar  
    34    17    18 ar  
    35    17    41 1   
    36    18    19 1   
    37    18    20 ar  
    38    20    21 1   
    39    20    22 ar  
    40    21    42 1   
    41    22    23 1   
    42    22    24 ar  
    43    24    25 1   
    44    25    43 1   
@<TRIPOS>SUBSTRUCTURE
     1 4BB         1 TEMP              0 ****  ****    0 ROOT
