@<TRIPOS>MOLECULE
4BC
   42    45     1     0     0
SMALL
abcg2


@<TRIPOS>ATOM
      1 C15          0.5030    -0.7580    -2.1220 ca         1 4BC      -0.047000
      2 C12          1.8060    -0.5580    -2.5000 ca         1 4BC       0.036100
      3 O17          2.5860    -1.3400    -3.2910 os         1 4BC      -0.351100
      4 C19          3.7710    -0.5940    -3.5300 c5         1 4BC       0.376600
      5 O18          3.7990     0.4570    -2.5750 os         1 4BC      -0.361100
      6 C16          2.5430     0.5320    -2.0670 ca         1 4BC       0.029100
      7 C22          2.0030     1.4800    -1.2340 ca         1 4BC      -0.108000
      8 C20          0.6740     1.2890    -0.8410 ca         1 4BC      -0.107000
      9 C8          -0.0710     0.1940    -1.2630 ca         1 4BC       0.058000
     10 C4          -1.4410     0.0100    -0.7610 cc         1 4BC      -0.178000
     11 C1          -2.6260     0.0160    -1.4810 cd         1 4BC      -0.149600
     12 C7          -2.9540     0.1750    -2.9460 c          1 4BC       0.731600
     13 O21         -4.1680     0.1220    -3.2190 o          1 4BC      -0.696500
     14 O23         -1.9960     0.3440    -3.7130 o          1 4BC      -0.696500
     15 N5          -3.6100    -0.1270    -0.5800 na         1 4BC       0.039800
     16 C2          -1.8450    -0.1650     0.5870 cc         1 4BC       0.316500
     17 N3          -3.1710    -0.2390     0.6600 nd         1 4BC      -0.634800
     18 C6          -1.0530    -0.2390     1.8170 ca         1 4BC      -0.224500
     19 C10          0.2900    -0.6220     1.8050 ca         1 4BC      -0.022000
     20 C14          1.0930    -0.6520     2.9320 ca         1 4BC      -0.162300
     21 C26          2.5460    -1.0280     2.8320 c3         1 4BC      -0.006100
     22 C27          3.4610     0.1880     2.6960 c3         1 4BC      -0.085100
     23 C13          0.5060    -0.2770     4.1470 ca         1 4BC       0.165100
     24 O25          1.2860    -0.2810     5.2470 oh         1 4BC      -0.541100
     25 C11         -0.8360     0.0700     4.2090 ca         1 4BC      -0.270000
     26 C9          -1.6250     0.0790     3.0620 ca         1 4BC       0.209100
     27 O24         -2.9190     0.4070     3.2100 oh         1 4BC      -0.566100
     28 H15         -0.0590    -1.6180    -2.4580 ha         1 4BC       0.144000
     29 H191         3.7490    -0.1750    -4.5430 h2         1 4BC       0.048700
     30 H192         4.6430    -1.2340    -3.4020 h2         1 4BC       0.048700
     31 H22          2.5730     2.3330    -0.8910 ha         1 4BC       0.117000
     32 H20          0.2170     2.0130    -0.1790 ha         1 4BC       0.119000
     33 HN5         -4.5970    -0.1510    -0.7850 hn         1 4BC       0.387000
     34 H10          0.7340    -0.9190     0.8650 ha         1 4BC       0.127000
     35 H261         2.6810    -1.6730     1.9600 hc         1 4BC       0.039700
     36 H262         2.8520    -1.6200     3.6970 hc         1 4BC       0.039700
     37 H271         4.5070    -0.1160     2.6310 hc         1 4BC       0.030033
     38 H272         3.2200     0.7540     1.7950 hc         1 4BC       0.030033
     39 H273         3.3610     0.8590     3.5500 hc         1 4BC       0.030033
     40 H25          0.7720    -0.0350     6.0230 ho         1 4BC       0.454000
     41 H11         -1.2910     0.3310     5.1590 ha         1 4BC       0.115000
     42 H24         -3.3840     0.2480     2.3610 ho         1 4BC       0.517000
@<TRIPOS>BOND
     1     1     2 ar  
     2     1     9 ar  
     3     1    28 1   
     4     2     3 1   
     5     2     6 ar  
     6     3     4 1   
     7     4     5 1   
     8     4    29 1   
     9     4    30 1   
    10     5     6 1   
    11     6     7 ar  
    12     7     8 ar  
    13     7    31 1   
    14     8     9 ar  
    15     8    32 1   
    16     9    10 1   
    17    10    11 2   
    18    10    16 1   
    19    11    12 1   
    20    11    15 1   
    21    12    13 1   
    22    12    14 1   
    23    15    17 1   
    24    15    33 1   
    25    16    17 2   
    26    16    18 1   
    27    18    19 ar  
    28    18    26 ar  
    29    19    20 ar  
    30    19    34 1   
    31    20    21 1   
    32    20    23 ar  
    33    21    22 1   
    34    21    35 1   
    35    21    36 1   
    36    22    37 1   
    37    22    38 1   
    38    22    39 1   
    39    23    24 1   
    40    23    25 ar  
    41    24    40 1   
    42    25    26 ar  
    43    25    41 1   
    44    26    27 1   
    45    27    42 1   
@<TRIPOS>SUBSTRUCTURE
     1 4BC         1 TEMP              0 ****  ****    0 ROOT
