@<TRIPOS>MOLECULE
4BC
   42    45     1     0     0
SMALL
No Charge or Current Charge


@<TRIPOS>ATOM
      1 C15          0.4810    -0.6930    -2.2160 ca         1 4BC      -0.047000
      2 C12          1.7900    -0.4180    -2.6320 ca         1 4BC       0.036100
      3 O17          2.4910    -1.1100    -3.5660 os         1 4BC      -0.351100
      4 C19          3.7490    -0.3500    -3.6540 c5         1 4BC       0.376600
      5 O18          3.7690     0.6800    -2.6040 os         1 4BC      -0.361100
      6 C16          2.5190     0.5980    -2.0820 ca         1 4BC       0.029100
      7 C22          1.9960     1.4130    -1.0730 ca         1 4BC      -0.108000
      8 C20          0.6790     1.1610    -0.6360 ca         1 4BC      -0.107000
      9 C8          -0.0950     0.1150    -1.2070 ca         1 4BC       0.058000
     10 C4          -1.4440    -0.1620    -0.6900 cc         1 4BC      -0.178000
     11 C1          -2.5670    -0.1820    -1.4980 cd         1 4BC      -0.149600
     12 C7          -2.7400    -0.0470    -2.9810 c          1 4BC       0.731600
     13 O21         -3.8850    -0.1130    -3.4080 o          1 4BC      -0.696500
     14 O23         -1.7860     0.1640    -3.7120 o          1 4BC      -0.696500
     15 N5          -3.6330    -0.2640    -0.6000 na         1 4BC       0.039800
     16 C2          -1.9120    -0.1090     0.6520 cc         1 4BC       0.316500
     17 N3          -3.2300    -0.1900     0.7310 nd         1 4BC      -0.634800
     18 C6          -1.0850    -0.1170     1.8810 ca         1 4BC      -0.224500
     19 C10          0.2430    -0.6060     1.8580 ca         1 4BC      -0.022000
     20 C14          1.0420    -0.6290     3.0170 ca         1 4BC      -0.162300
     21 C26          2.4780    -1.1440     2.9120 c3         1 4BC      -0.006100
     22 C27          3.4580    -0.0380     2.4780 c3         1 4BC      -0.085100
     23 C13          0.4990    -0.1780     4.2370 ca         1 4BC       0.165100
     24 O25          1.2410    -0.1720     5.3800 oh         1 4BC      -0.541100
     25 C11         -0.8290     0.2560     4.2910 ca         1 4BC      -0.270000
     26 C9          -1.6150     0.2690     3.1340 ca         1 4BC       0.209100
     27 O24         -2.9010     0.6860     3.2340 oh         1 4BC      -0.566100
     28 H15         -0.0670    -1.5260    -2.6460 ha         1 4BC       0.144000
     29 H191         3.8010     0.1390    -4.6340 h2         1 4BC       0.048700
     30 H192         4.6010    -1.0280    -3.5250 h2         1 4BC       0.048700
     31 H22          2.5900     2.2110    -0.6370 ha         1 4BC       0.117000
     32 H20          0.2530     1.7810     0.1490 ha         1 4BC       0.119000
     33 HN5         -4.6180    -0.3170    -0.8640 hn         1 4BC       0.387000
     34 H10          0.6670    -1.0010     0.9400 ha         1 4BC       0.127000
     35 H261         2.5310    -1.9630     2.1840 hc         1 4BC       0.039700
     36 H262         2.8180    -1.5720     3.8620 hc         1 4BC       0.039700
     37 H271         4.4780    -0.4360     2.4090 hc         1 4BC       0.030033
     38 H272         3.1780     0.3640     1.4980 hc         1 4BC       0.030033
     39 H273         3.4580     0.7840     3.2040 hc         1 4BC       0.030033
     40 H25          0.6780     0.1720     6.1040 ho         1 4BC       0.454000
     41 H11         -1.2610     0.5840     5.2330 ha         1 4BC       0.115000
     42 H24         -3.2900     0.4690     2.3430 ho         1 4BC       0.517000
@<TRIPOS>BOND
     1     1     2 ar  
     2     1     9 ar  
     3     1    28 1   
     4     2     3 1   
     5     2     6 ar  
     6     3     4 1   
     7     4     5 1   
     8     4    29 1   
     9     4    30 1   
    10     5     6 1   
    11     6     7 ar  
    12     7     8 ar  
    13     7    31 1   
    14     8     9 ar  
    15     8    32 1   
    16     9    10 1   
    17    10    11 2   
    18    10    16 1   
    19    11    12 1   
    20    11    15 1   
    21    12    13 1   
    22    12    14 1   
    23    15    17 1   
    24    15    33 1   
    25    16    17 2   
    26    16    18 1   
    27    18    19 ar  
    28    18    26 ar  
    29    19    20 ar  
    30    19    34 1   
    31    20    21 1   
    32    20    23 ar  
    33    21    22 1   
    34    21    35 1   
    35    21    36 1   
    36    22    37 1   
    37    22    38 1   
    38    22    39 1   
    39    23    24 1   
    40    23    25 ar  
    41    24    40 1   
    42    25    26 ar  
    43    25    41 1   
    44    26    27 1   
    45    27    42 1   
@<TRIPOS>SUBSTRUCTURE
     1 4BC         1 TEMP              0 ****  ****    0 ROOT
