@<TRIPOS>MOLECULE
4BE
   31    32     1     0     0
SMALL
No Charge or Current Charge


@<TRIPOS>ATOM
      1 CAJ         -4.8330    -0.9170     1.0590 ca         1 4BE      -0.069500
      2 CAH         -6.2130    -0.6550     1.0040 ca         1 4BE      -0.092000
      3 CAP         -6.7220     0.2310     0.0450 ca         1 4BE       0.001100
      4 BrAD        -8.6000     0.5860    -0.0290 br         1 4BE      -0.081100
      5 CAI         -5.8540     0.8580    -0.8610 ca         1 4BE      -0.092000
      6 CAK         -4.4720     0.6000    -0.8110 ca         1 4BE      -0.069500
      7 CAU         -3.9400    -0.2940     0.1540 ca         1 4BE      -0.146600
      8 CAO         -2.4550    -0.6030     0.2460 c          1 4BE       0.632700
      9 OAA         -2.0100    -1.3770     1.0880 o          1 4BE      -0.540100
     10 NAN         -1.6200     0.0410    -0.6700 ns         1 4BE      -0.266900
     11 NAM         -0.2430    -0.1350    -0.7280 n2         1 4BE      -0.497300
     12 CAG          0.5240     0.5640     0.0550 ce         1 4BE       0.430800
     13 CAT          2.0080     0.3830     0.0790 ca         1 4BE      -0.300900
     14 CAL          2.7500     1.2120     0.9430 ca         1 4BE       0.032000
     15 CAQ          4.1470     1.1000     1.0180 ca         1 4BE      -0.124900
     16 BrAE         5.1090     2.2550     2.2130 br         1 4BE      -0.067100
     17 CAR          4.8210     0.1540     0.2270 ca         1 4BE       0.261100
     18 OAB          6.1780     0.0440     0.2990 oh         1 4BE      -0.501100
     19 CAV          4.0960    -0.6800    -0.6400 ca         1 4BE      -0.201900
     20 BrAF         5.0220    -1.9790    -1.7260 br         1 4BE      -0.067100
     21 CAS          2.6950    -0.5660    -0.7140 ca         1 4BE       0.282100
     22 OAC          2.0110    -1.3840    -1.5580 oh         1 4BE      -0.513100
     23 HAJ         -4.4600    -1.6080     1.8120 ha         1 4BE       0.128500
     24 HAH         -6.8860    -1.1420     1.7070 ha         1 4BE       0.136500
     25 HAI         -6.2500     1.5450    -1.6050 ha         1 4BE       0.136500
     26 HAK         -3.8340     1.1060    -1.5310 ha         1 4BE       0.128500
     27 HNAN        -2.0860     0.6630    -1.3240 hn         1 4BE       0.315500
     28 HAG          0.1070     1.3150     0.7290 h4         1 4BE      -0.006200
     29 HAL          2.2440     1.9500     1.5630 ha         1 4BE       0.128000
     30 HOAB         6.4450    -0.6640    -0.3240 ho         1 4BE       0.491000
     31 HOAC         1.0590    -1.1360    -1.4550 ho         1 4BE       0.531000
@<TRIPOS>BOND
     1     1     2 ar  
     2     1     7 ar  
     3     1    23 1   
     4     2     3 ar  
     5     2    24 1   
     6     3     4 1   
     7     3     5 ar  
     8     5     6 ar  
     9     5    25 1   
    10     6     7 ar  
    11     6    26 1   
    12     7     8 1   
    13     8     9 2   
    14     8    10 1   
    15    10    11 1   
    16    10    27 1   
    17    11    12 2   
    18    12    13 1   
    19    12    28 1   
    20    13    14 ar  
    21    13    21 ar  
    22    14    15 ar  
    23    14    29 1   
    24    15    16 1   
    25    15    17 ar  
    26    17    18 1   
    27    17    19 ar  
    28    18    30 1   
    29    19    20 1   
    30    19    21 ar  
    31    21    22 1   
    32    22    31 1   
@<TRIPOS>SUBSTRUCTURE
     1 4BE         1 TEMP              0 ****  ****    0 ROOT
