@<TRIPOS>MOLECULE
4BE
   31    32     1     0     0
SMALL
bcc


@<TRIPOS>ATOM
      1 CAJ         -4.8400    -1.3960     0.2990 ca         1 4BE      -0.087500
      2 CAH         -6.1910    -1.1010     0.3530 ca         1 4BE      -0.110000
      3 CAP         -6.6170     0.1740     0.0070 ca         1 4BE       0.001100
      4 BRAD        -8.4540     0.5850     0.0690 br         1 4BE      -0.081100
      5 CAI         -5.7140     1.1500    -0.3900 ca         1 4BE      -0.110000
      6 CAK         -4.3630     0.8430    -0.4280 ca         1 4BE      -0.087500
      7 CAU         -3.9130    -0.4280    -0.0790 ca         1 4BE      -0.146600
      8 CAO         -2.4770    -0.8220    -0.1300 c          1 4BE       0.699700
      9 OAA         -2.1250    -1.9720    -0.3010 o          1 4BE      -0.540100
     10 NAN         -1.5930     0.1980     0.0380 ns         1 4BE      -0.333900
     11 NAM         -0.2790    -0.0610    -0.0280 n2         1 4BE      -0.497300
     12 CAG          0.5640     0.8690     0.2000 ce         1 4BE       0.430800
     13 CAT          1.9850     0.5910     0.1300 ca         1 4BE      -0.300900
     14 CAL          2.8900     1.6230     0.3680 ca         1 4BE       0.014000
     15 CAQ          4.2490     1.4090     0.3160 ca         1 4BE      -0.124900
     16 BRAE         5.4440     2.8250     0.6370 br         1 4BE      -0.067100
     17 CAR          4.7630     0.1390     0.0240 ca         1 4BE       0.261100
     18 OAB          6.0820    -0.0010    -0.0070 oh         1 4BE      -0.462100
     19 CAV          3.8560    -0.8960    -0.2140 ca         1 4BE      -0.201900
     20 BRAF         4.4890    -2.6220    -0.6120 br         1 4BE      -0.067100
     21 CAS          2.4750    -0.6960    -0.1680 ca         1 4BE       0.282100
     22 OAC          1.6800    -1.7280    -0.4030 oh         1 4BE      -0.474100
     23 HAJ         -4.5080    -2.3910     0.5650 ha         1 4BE       0.146500
     24 HAH         -6.8950    -1.8610     0.6610 ha         1 4BE       0.154500
     25 HAI         -6.0470     2.1380    -0.6770 ha         1 4BE       0.154500
     26 HAK         -3.6780     1.6110    -0.7630 ha         1 4BE       0.146500
     27 HNAN        -1.9020     1.1230     0.3090 hn         1 4BE       0.315500
     28 HAG          0.2580     1.8850     0.4520 h4         1 4BE      -0.006200
     29 HAL          2.5070     2.6090     0.5980 ha         1 4BE       0.146000
     30 HOAB         6.3560    -0.9010    -0.2260 ho         1 4BE       0.452000
     31 HOAC         0.7400    -1.4290    -0.3350 ho         1 4BE       0.492000
@<TRIPOS>BOND
     1     1     2 ar  
     2     1     7 ar  
     3     1    23 1   
     4     2     3 ar  
     5     2    24 1   
     6     3     4 1   
     7     3     5 ar  
     8     5     6 ar  
     9     5    25 1   
    10     6     7 ar  
    11     6    26 1   
    12     7     8 1   
    13     8     9 2   
    14     8    10 1   
    15    10    11 1   
    16    10    27 1   
    17    11    12 2   
    18    12    13 1   
    19    12    28 1   
    20    13    14 ar  
    21    13    21 ar  
    22    14    15 ar  
    23    14    29 1   
    24    15    16 1   
    25    15    17 ar  
    26    17    18 1   
    27    17    19 ar  
    28    18    30 1   
    29    19    20 1   
    30    19    21 ar  
    31    21    22 1   
    32    22    31 1   
@<TRIPOS>SUBSTRUCTURE
     1 4BE         1 TEMP              0 ****  ****    0 ROOT
