@<TRIPOS>MOLECULE
4BF
   22    22     1     0     0
SMALL
bcc


@<TRIPOS>ATOM
      1 CD1         74.9740    42.0270    -4.1060 ca         1 4BF      -0.132000
      2 CE1         74.9680    42.9680    -5.1260 ca         1 4BF      -0.113000
      3 CZ          74.2580    42.6960    -6.2860 ca         1 4BF      -0.035900
      4 BR          74.2430    43.9660    -7.6890 br         1 4BF      -0.150100
      5 CE2         73.5580    41.5090    -6.4310 ca         1 4BF      -0.113000
      6 CD2         73.5820    40.5810    -5.3980 ca         1 4BF      -0.132000
      7 CG          74.2880    40.8190    -4.2220 ca         1 4BF      -0.025300
      8 CB          74.3590    39.7960    -3.1260 c3         1 4BF      -0.022100
      9 CA          75.6470    38.9680    -3.2030 c3         1 4BF       0.025500
     10 N           75.7130    38.2540    -4.4680 n8         1 4BF      -0.897800
     11 C           75.7820    37.9840    -2.0090 c          1 4BF       0.933600
     12 OXT         75.3470    38.3760    -0.9100 o          1 4BF      -0.832300
     13 O           76.3640    36.9060    -2.2420 o          1 4BF      -0.832300
     14 HD1         75.5270    42.2440    -3.2000 ha         1 4BF       0.140000
     15 HE1         75.5070    43.8980    -5.0050 ha         1 4BF       0.131000
     16 HE2         72.9980    41.2980    -7.3330 ha         1 4BF       0.131000
     17 HD2         73.0340    39.6550    -5.5140 ha         1 4BF       0.140000
     18 HB3         73.4980    39.1260    -3.1870 hc         1 4BF       0.061700
     19 HB2         74.3180    40.2920    -2.1560 hc         1 4BF       0.061700
     20 HCA         76.4860    39.6770    -3.0840 h1         1 4BF      -0.002300
     21 H           76.3850    37.5060    -4.3630 hn         1 4BF       0.332300
     22 H2          76.0580    38.8630    -5.1980 hn         1 4BF       0.332300
@<TRIPOS>BOND
     1     1     2 ar  
     2     1     7 ar  
     3     1    14 1   
     4     2     3 ar  
     5     2    15 1   
     6     3     4 1   
     7     3     5 ar  
     8     5     6 ar  
     9     5    16 1   
    10     6     7 ar  
    11     6    17 1   
    12     7     8 1   
    13     8     9 1   
    14     8    18 1   
    15     8    19 1   
    16     9    10 1   
    17     9    11 1   
    18     9    20 1   
    19    10    21 1   
    20    10    22 1   
    21    11    12 1   
    22    11    13 1   
@<TRIPOS>SUBSTRUCTURE
     1 4BF         1 TEMP              0 ****  ****    0 ROOT
