@<TRIPOS>MOLECULE
4BG
   35    36     1     0     0
SMALL
No Charge or Current Charge


@<TRIPOS>ATOM
      1 C1          -4.7680    -0.6220    -0.9920 ca         1 4BG      -0.083500
      2 C2          -6.0810    -0.1580    -1.1890 ca         1 4BG      -0.115000
      3 C3          -6.7150     0.6030    -0.1920 ca         1 4BG      -0.098000
      4 C4          -6.0360     0.9010     1.0010 ca         1 4BG      -0.115000
      5 C5          -4.7230     0.4380     1.1980 ca         1 4BG      -0.083500
      6 C6          -4.0830    -0.3280     0.2030 ca         1 4BG      -0.096300
      7 C7          -2.6610    -0.8310     0.4170 c3         1 4BG       0.211900
      8 O8          -1.7460     0.1600    -0.0820 os         1 4BG      -0.340100
      9 C9          -0.3780    -0.0100    -0.0280 ca         1 4BG       0.121100
     10 C12          0.4320     1.0140    -0.5410 ca         1 4BG      -0.149000
     11 C13          1.8340     0.9020    -0.5160 ca         1 4BG      -0.105500
     12 C10          0.2280    -1.1620     0.5180 ca         1 4BG      -0.149000
     13 C11          1.6290    -1.2750     0.5430 ca         1 4BG      -0.105500
     14 C14          2.4460    -0.2490     0.0280 ca         1 4BG      -0.058000
     15 N15          3.8560    -0.4390     0.0910 ns         1 4BG      -0.156000
     16 C16          4.9300     0.3380    -0.3330 c          1 4BG       0.601100
     17 O17          4.8180     1.4240    -0.8960 o          1 4BG      -0.557100
     18 C18          6.3250    -0.3110    -0.0340 c3         1 4BG       0.069800
     19 N19          7.5390     0.5840    -0.0620 n8         1 4BG      -0.971200
     20 H1          -4.2830    -1.2090    -1.7690 ha         1 4BG       0.114500
     21 H2          -6.6060    -0.3880    -2.1130 ha         1 4BG       0.114000
     22 H3          -7.7310     0.9620    -0.3450 ha         1 4BG       0.113000
     23 H4          -6.5250     1.4920     1.7720 ha         1 4BG       0.114000
     24 H5          -4.2030     0.6750     2.1240 ha         1 4BG       0.114500
     25 H7          -2.4930    -1.0080     1.4880 h1         1 4BG       0.038700
     26 H7A         -2.5270    -1.7830    -0.1120 h1         1 4BG       0.038700
     27 H12         -0.0310     1.9030    -0.9610 ha         1 4BG       0.123500
     28 H13          2.4200     1.7190    -0.9220 ha         1 4BG       0.125000
     29 H10         -0.3670    -1.9750     0.9240 ha         1 4BG       0.123500
     30 H11          2.0820    -2.1690     0.9670 ha         1 4BG       0.125000
     31 HN15         4.1290    -1.3090     0.5310 hn         1 4BG       0.144000
     32 H18          6.2690    -0.7760     0.9600 h1         1 4BG       0.042700
     33 H18A         6.4680    -1.1180    -0.7650 h1         1 4BG       0.042700
     34 HN19         8.3910     0.0150     0.0300 hn         1 4BG       0.403000
     35 HN1A         7.6280     1.0080    -0.9960 hn         1 4BG       0.403000
@<TRIPOS>BOND
     1     1     2 ar  
     2     1     6 ar  
     3     1    20 1   
     4     2     3 ar  
     5     2    21 1   
     6     3     4 ar  
     7     3    22 1   
     8     4     5 ar  
     9     4    23 1   
    10     5     6 ar  
    11     5    24 1   
    12     6     7 1   
    13     7     8 1   
    14     7    25 1   
    15     7    26 1   
    16     8     9 1   
    17     9    10 ar  
    18     9    12 ar  
    19    10    11 ar  
    20    10    27 1   
    21    11    14 ar  
    22    11    28 1   
    23    12    13 ar  
    24    12    29 1   
    25    13    14 ar  
    26    13    30 1   
    27    14    15 1   
    28    15    16 1   
    29    15    31 1   
    30    16    17 2   
    31    16    18 1   
    32    18    19 1   
    33    18    32 1   
    34    18    33 1   
    35    19    34 1   
    36    19    35 1   
@<TRIPOS>SUBSTRUCTURE
     1 4BG         1 TEMP              0 ****  ****    0 ROOT
