@<TRIPOS>MOLECULE
4BG
   35    36     1     0     0
SMALL
abcg2


@<TRIPOS>ATOM
      1 C1          -4.7270    -0.7140    -0.8880 ca         1 4BG      -0.083500
      2 C2          -6.0160    -0.2310    -1.0760 ca         1 4BG      -0.115000
      3 C3          -6.5650     0.6570    -0.1610 ca         1 4BG      -0.098000
      4 C4          -5.8230     1.0580     0.9430 ca         1 4BG      -0.115000
      5 C5          -4.5360     0.5730     1.1290 ca         1 4BG      -0.083500
      6 C6          -3.9790    -0.3190     0.2160 ca         1 4BG      -0.096300
      7 C7          -2.5780    -0.8160     0.4030 c3         1 4BG       0.211900
      8 O8          -1.7040     0.1580    -0.1510 os         1 4BG      -0.340100
      9 C9          -0.3740    -0.0680    -0.0930 ca         1 4BG       0.121100
     10 C12          0.4500     0.9290    -0.6130 ca         1 4BG      -0.149000
     11 C13          1.8270     0.7980    -0.6110 ca         1 4BG      -0.105500
     12 C10          0.2150    -1.2120     0.4350 ca         1 4BG      -0.149000
     13 C11          1.5970    -1.3370     0.4450 ca         1 4BG      -0.105500
     14 C14          2.4230    -0.3440    -0.0720 ca         1 4BG      -0.058000
     15 N15          3.8070    -0.5680    -0.0540 ns         1 4BG      -0.156000
     16 C16          4.8080     0.3500    -0.0670 c          1 4BG       0.601100
     17 O17          4.6310     1.5500    -0.1530 o          1 4BG      -0.557100
     18 C18          6.1880    -0.2830     0.0140 c3         1 4BG       0.069800
     19 N19          7.2310     0.7150     0.0000 n8         1 4BG      -0.971200
     20 H1          -4.3020    -1.4090    -1.6030 ha         1 4BG       0.114500
     21 H2          -6.5910    -0.5510    -1.9350 ha         1 4BG       0.114000
     22 H3          -7.5700     1.0320    -0.3050 ha         1 4BG       0.113000
     23 H4          -6.2490     1.7470     1.6610 ha         1 4BG       0.114000
     24 H5          -3.9620     0.8870     1.9930 ha         1 4BG       0.114500
     25 H7          -2.3580    -0.9590     1.4670 h1         1 4BG       0.038700
     26 H7A         -2.4450    -1.7810    -0.0970 h1         1 4BG       0.038700
     27 H12          0.0020     1.8210    -1.0340 ha         1 4BG       0.123500
     28 H13          2.4220     1.5890    -1.0360 ha         1 4BG       0.125000
     29 H10         -0.3740    -2.0190     0.8510 ha         1 4BG       0.123500
     30 H11          2.0340    -2.2340     0.8670 ha         1 4BG       0.125000
     31 HN15         4.0850    -1.5270     0.0880 hn         1 4BG       0.144000
     32 H18          6.2450    -0.8450     0.9510 h1         1 4BG       0.042700
     33 H18A         6.2560    -1.0330    -0.7870 h1         1 4BG       0.042700
     34 HN19         8.1200     0.2530     0.1320 hn         1 4BG       0.403000
     35 HN1A         7.2770     1.1510    -0.9120 hn         1 4BG       0.403000
@<TRIPOS>BOND
     1     1     2 ar  
     2     1     6 ar  
     3     1    20 1   
     4     2     3 ar  
     5     2    21 1   
     6     3     4 ar  
     7     3    22 1   
     8     4     5 ar  
     9     4    23 1   
    10     5     6 ar  
    11     5    24 1   
    12     6     7 1   
    13     7     8 1   
    14     7    25 1   
    15     7    26 1   
    16     8     9 1   
    17     9    10 ar  
    18     9    12 ar  
    19    10    11 ar  
    20    10    27 1   
    21    11    14 ar  
    22    11    28 1   
    23    12    13 ar  
    24    12    29 1   
    25    13    14 ar  
    26    13    30 1   
    27    14    15 1   
    28    15    16 1   
    29    15    31 1   
    30    16    17 2   
    31    16    18 1   
    32    18    19 1   
    33    18    32 1   
    34    18    33 1   
    35    19    34 1   
    36    19    35 1   
@<TRIPOS>SUBSTRUCTURE
     1 4BG         1 TEMP              0 ****  ****    0 ROOT
