@<TRIPOS>MOLECULE
4BH
   35    37     1     0     0
SMALL
abcg2


@<TRIPOS>ATOM
      1 CL           4.3300     0.9060    -1.1710 cl         1 4BH      -0.175000
      2 C1           2.9530     0.6630    -0.1520 ca         1 4BH       0.034000
      3 C2           3.1140     0.0030     1.0660 ca         1 4BH       0.202100
      4 O2           4.3380    -0.4170     1.4000 oh         1 4BH      -0.507100
      5 C3           2.0020    -0.1850     1.8790 ca         1 4BH      -0.311000
      6 C4           0.7490     0.2720     1.4870 ca         1 4BH       0.211100
      7 O4          -0.3370     0.1170     2.2590 oh         1 4BH      -0.510100
      8 C5           1.7050     1.1090    -0.5430 ca         1 4BH      -0.021000
      9 C6           0.5830     0.9180     0.2570 ca         1 4BH      -0.098000
     10 C7          -0.7270     1.4180    -0.1710 cc         1 4BH      -0.129000
     11 N1          -0.9320     2.7440    -0.3570 na         1 4BH       0.000800
     12 N2          -2.1560     3.0430    -0.7530 nc         1 4BH      -0.509800
     13 C8          -2.7720     1.8810    -0.8600 cd         1 4BH       0.226900
     14 C9          -1.9260     0.8070    -0.5090 cd         1 4BH       0.181000
     15 N3          -2.2860    -0.5410    -0.5700 nh         1 4BH      -0.759400
     16 C11         -3.2950    -0.9610     0.3930 c6         1 4BH       0.197800
     17 C12         -3.8610    -2.3110    -0.0070 c6         1 4BH       0.152800
     18 C15         -1.2250    -1.5190    -0.7180 c6         1 4BH       0.197800
     19 C14         -1.8240    -2.8560    -1.1210 c6         1 4BH       0.152800
     20 N4          -2.7830    -3.2740    -0.1160 n7         1 4BH      -0.865400
     21 H2           4.3240    -0.8630     2.2550 ho         1 4BH       0.472000
     22 H3           2.1180    -0.6900     2.8330 ha         1 4BH       0.120000
     23 H4          -0.1220    -0.3870     3.0520 ho         1 4BH       0.469000
     24 H5           1.5960     1.6040    -1.5000 ha         1 4BH       0.138000
     25 H1          -0.2620     3.4790    -0.1920 hn         1 4BH       0.371000
     26 H8          -3.8010     1.8300    -1.1860 h4         1 4BH       0.040100
     27 H111        -2.8750    -1.0230     1.4070 h1         1 4BH       0.040950
     28 H112        -4.0980    -0.2240     0.4160 h1         1 4BH       0.040950
     29 H121        -4.5700    -2.6430     0.7550 h1         1 4BH       0.036200
     30 H122        -4.4230    -2.1930    -0.9480 h1         1 4BH       0.036200
     31 H151        -0.5290    -1.1820    -1.4880 h1         1 4BH       0.040950
     32 H152        -0.6530    -1.6600     0.2090 h1         1 4BH       0.040950
     33 H141        -1.0260    -3.5980    -1.1900 h1         1 4BH       0.036200
     34 H142        -2.2710    -2.7580    -2.1230 h1         1 4BH       0.036200
     35 HA          -3.1570    -4.1830    -0.3550 hn         1 4BH       0.410000
@<TRIPOS>BOND
     1     1     2 1   
     2     2     3 ar  
     3     2     8 ar  
     4     3     4 1   
     5     3     5 ar  
     6     4    21 1   
     7     5     6 ar  
     8     5    22 1   
     9     6     7 1   
    10     6     9 ar  
    11     7    23 1   
    12     8     9 ar  
    13     8    24 1   
    14     9    10 1   
    15    10    11 1   
    16    10    14 2   
    17    11    12 1   
    18    11    25 1   
    19    12    13 2   
    20    13    14 1   
    21    13    26 1   
    22    14    15 1   
    23    15    16 1   
    24    15    18 1   
    25    16    17 1   
    26    16    27 1   
    27    16    28 1   
    28    17    20 1   
    29    17    29 1   
    30    17    30 1   
    31    18    19 1   
    32    18    31 1   
    33    18    32 1   
    34    19    20 1   
    35    19    33 1   
    36    19    34 1   
    37    20    35 1   
@<TRIPOS>SUBSTRUCTURE
     1 4BH         1 TEMP              0 ****  ****    0 ROOT
