@<TRIPOS>MOLECULE
4BH
   35    37     1     0     0
SMALL
No Charge or Current Charge


@<TRIPOS>ATOM
      1 Cl           4.0840     0.3560    -1.6760 cl         1 4BH      -0.175000
      2 C1           2.8450     0.4000    -0.4190 ca         1 4BH       0.034000
      3 C2           3.0970    -0.1130     0.8710 ca         1 4BH       0.202100
      4 O2           4.3100    -0.6550     1.1840 oh         1 4BH      -0.507100
      5 C3           2.0980    -0.0630     1.8540 ca         1 4BH      -0.311000
      6 C4           0.8440     0.4890     1.5530 ca         1 4BH       0.211100
      7 O4          -0.1000     0.5490     2.5330 oh         1 4BH      -0.510100
      8 C5           1.5890     0.9530    -0.7180 ca         1 4BH      -0.021000
      9 C6           0.5770     0.9920     0.2590 ca         1 4BH      -0.098000
     10 C7          -0.7230     1.5660    -0.0870 cc         1 4BH      -0.129000
     11 N1          -1.0240     2.9060    -0.3140 na         1 4BH       0.000800
     12 N2          -2.3660     3.1250    -0.5950 nc         1 4BH      -0.509800
     13 C8          -2.8720     1.8990    -0.5510 cd         1 4BH       0.226900
     14 C9          -1.9080     0.8900    -0.2560 cd         1 4BH       0.181000
     15 N3          -2.1730    -0.5010    -0.1870 nh         1 4BH      -0.759400
     16 C11         -3.4980    -1.0170     0.2910 c6         1 4BH       0.197800
     17 C12         -3.9210    -2.3510    -0.4120 c6         1 4BH       0.152800
     18 C15         -1.0980    -1.5460    -0.2540 c6         1 4BH       0.197800
     19 C14         -1.5810    -2.8750    -0.9290 c6         1 4BH       0.152800
     20 N4          -2.8590    -3.3970    -0.3660 n7         1 4BH      -0.865400
     21 H2           4.2810    -0.9450     2.1190 ho         1 4BH       0.472000
     22 H3           2.2970    -0.4490     2.8510 ha         1 4BH       0.120000
     23 H4           0.2820     0.1580     3.3450 ho         1 4BH       0.469000
     24 H5           1.3970     1.3420    -1.7150 ha         1 4BH       0.138000
     25 H1          -0.3610     3.6790    -0.2710 hn         1 4BH       0.371000
     26 H8          -3.9270     1.7670    -0.7530 h4         1 4BH       0.040100
     27 H111        -3.4450    -1.1950     1.3750 h1         1 4BH       0.040950
     28 H112        -4.2920    -0.2750     0.1320 h1         1 4BH       0.040950
     29 H121        -4.8370    -2.7360     0.0590 h1         1 4BH       0.036200
     30 H122        -4.1620    -2.1330    -1.4630 h1         1 4BH       0.036200
     31 H151        -0.2360    -1.1810    -0.8290 h1         1 4BH       0.040950
     32 H152        -0.7420    -1.7740     0.7620 h1         1 4BH       0.040950
     33 H141        -0.7960    -3.6390    -0.8300 h1         1 4BH       0.036200
     34 H142        -1.7170    -2.6890    -2.0050 h1         1 4BH       0.036200
     35 HA          -3.1630    -4.2090    -0.9190 hn         1 4BH       0.410000
@<TRIPOS>BOND
     1     1     2 1   
     2     2     3 ar  
     3     2     8 ar  
     4     3     4 1   
     5     3     5 ar  
     6     4    21 1   
     7     5     6 ar  
     8     5    22 1   
     9     6     7 1   
    10     6     9 ar  
    11     7    23 1   
    12     8     9 ar  
    13     8    24 1   
    14     9    10 1   
    15    10    11 1   
    16    10    14 2   
    17    11    12 1   
    18    11    25 1   
    19    12    13 2   
    20    13    14 1   
    21    13    26 1   
    22    14    15 1   
    23    15    16 1   
    24    15    18 1   
    25    16    17 1   
    26    16    27 1   
    27    16    28 1   
    28    17    20 1   
    29    17    29 1   
    30    17    30 1   
    31    18    19 1   
    32    18    31 1   
    33    18    32 1   
    34    19    20 1   
    35    19    33 1   
    36    19    34 1   
    37    20    35 1   
@<TRIPOS>SUBSTRUCTURE
     1 4BH         1 TEMP              0 ****  ****    0 ROOT
