@<TRIPOS>MOLECULE
4BI
   48    50     1     0     0
SMALL
No Charge or Current Charge


@<TRIPOS>ATOM
      1 N1          -3.2890    -1.4830    -0.0350 nb         1 4BI      -0.709000
      2 C2          -2.4360    -2.4770     0.2800 ca         1 4BI       0.269000
      3 C3          -1.0330    -2.2770     0.3220 ca         1 4BI      -0.066000
      4 C4          -0.4990    -0.9900     0.0300 cp         1 4BI      -0.029000
      5 C5          -1.4130     0.0550    -0.3030 ca         1 4BI      -0.032300
      6 C6          -2.8020    -0.2530    -0.3180 ca         1 4BI       0.419300
      7 C7          -0.1880    -3.3670     0.6420 ca         1 4BI      -0.089000
      8 C8          -0.7260    -4.6310     0.9290 ca         1 4BI      -0.133000
      9 C9          -2.1120    -4.8260     0.8960 ca         1 4BI      -0.127000
     10 C10         -2.9570    -3.7530     0.5710 ca         1 4BI      -0.085000
     11 C11         -0.9110     1.4760    -0.6300 c3         1 4BI       0.052600
     12 C12         -1.2890     1.8950    -2.0970 c          1 4BI       0.719000
     13 O13         -0.8980     1.1770    -3.0080 o          1 4BI      -0.709500
     14 O14         -1.9730     2.8930    -2.2930 o          1 4BI      -0.709500
     15 O15         -1.3980     2.3840     0.4090 os         1 4BI      -0.442000
     16 C16         -0.4860     3.3450     1.0030 c3         1 4BI       0.197000
     17 C17         -3.8940     0.7550    -0.6640 c3         1 4BI      -0.145400
     18 C18          0.9750    -0.7500     0.0790 cp         1 4BI      -0.021000
     19 C19          1.7230    -0.5780    -1.1100 ca         1 4BI      -0.085000
     20 C20          3.1090    -0.3450    -1.0610 ca         1 4BI      -0.118000
     21 C21          3.7650    -0.2870     0.1790 ca         1 4BI       0.113000
     22 C22          3.0420    -0.4650     1.3690 ca         1 4BI      -0.118000
     23 C23          1.6560    -0.6970     1.3190 ca         1 4BI      -0.085000
     24 Cl           5.4980     0.0070     0.2410 cl         1 4BI      -0.238000
     25 C25          0.0950     4.2750    -0.0940 c3         1 4BI      -0.101433
     26 C26         -1.3530     4.1540     1.9930 c3         1 4BI      -0.101433
     27 C27          0.6280     2.5820     1.7660 c3         1 4BI      -0.101433
     28 H7           0.8920    -3.2510     0.6680 ha         1 4BI       0.112000
     29 H8          -0.0660    -5.4600     1.1750 ha         1 4BI       0.097000
     30 H9          -2.5330    -5.8040     1.1170 ha         1 4BI       0.097000
     31 H10         -4.0320    -3.9100     0.5420 ha         1 4BI       0.118000
     32 H11          0.1810     1.4750    -0.6310 h1         1 4BI       0.036700
     33 H17         -3.7640     1.7010    -0.1300 hc         1 4BI       0.058033
     34 H17A        -3.9070     0.9630    -1.7390 hc         1 4BI       0.058033
     35 H17B        -4.8910     0.3810    -0.3980 hc         1 4BI       0.058033
     36 H19          1.2190    -0.6220    -2.0740 ha         1 4BI       0.146500
     37 H20          3.6720    -0.2100    -1.9810 ha         1 4BI       0.121000
     38 H22          3.5530    -0.4210     2.3270 ha         1 4BI       0.121000
     39 H23          1.0990    -0.8310     2.2430 ha         1 4BI       0.146500
     40 H25         -0.7070     4.7640    -0.6580 hc         1 4BI       0.033922
     41 H25A         0.7100     5.0600     0.3620 hc         1 4BI       0.033922
     42 H25B         0.7320     3.7270    -0.7970 hc         1 4BI       0.033922
     43 H26         -1.7880     3.4980     2.7570 hc         1 4BI       0.033922
     44 H26A        -0.7540     4.9180     2.5010 hc         1 4BI       0.033922
     45 H26B        -2.1740     4.6600     1.4690 hc         1 4BI       0.033922
     46 H27          1.3600     2.1420     1.0810 hc         1 4BI       0.033922
     47 H27A         1.1750     3.2650     2.4270 hc         1 4BI       0.033922
     48 H27B         0.2010     1.7830     2.3840 hc         1 4BI       0.033922
@<TRIPOS>BOND
     1     1     2 ar  
     2     1     6 ar  
     3     2     3 ar  
     4     2    10 ar  
     5     3     4 ar  
     6     3     7 ar  
     7     4     5 ar  
     8     4    18 1   
     9     5     6 ar  
    10     5    11 1   
    11     6    17 1   
    12     7     8 ar  
    13     7    28 1   
    14     8     9 ar  
    15     8    29 1   
    16     9    10 ar  
    17     9    30 1   
    18    10    31 1   
    19    11    12 1   
    20    11    15 1   
    21    11    32 1   
    22    12    13 1   
    23    12    14 1   
    24    15    16 1   
    25    16    25 1   
    26    16    26 1   
    27    16    27 1   
    28    17    33 1   
    29    17    34 1   
    30    17    35 1   
    31    18    19 ar  
    32    18    23 ar  
    33    19    20 ar  
    34    19    36 1   
    35    20    21 ar  
    36    20    37 1   
    37    21    22 ar  
    38    21    24 1   
    39    22    23 ar  
    40    22    38 1   
    41    23    39 1   
    42    25    40 1   
    43    25    41 1   
    44    25    42 1   
    45    26    43 1   
    46    26    44 1   
    47    26    45 1   
    48    27    46 1   
    49    27    47 1   
    50    27    48 1   
@<TRIPOS>SUBSTRUCTURE
     1 4BI         1 TEMP              0 ****  ****    0 ROOT
