@<TRIPOS>MOLECULE
4BI
   48    50     1     0     0
SMALL
bcc


@<TRIPOS>ATOM
      1 N1          -3.1900    -1.3500     0.1520 nb         1 4BI      -0.709000
      2 C2          -2.3340    -2.3580     0.4340 ca         1 4BI       0.399600
      3 C3          -0.9330    -2.1930     0.3690 ca         1 4BI      -0.131300
      4 C4          -0.4380    -0.9050     0.0090 cp         1 4BI      -0.029000
      5 C5          -1.3240     0.1060    -0.2810 ca         1 4BI      -0.097600
      6 C6          -2.7260    -0.1780    -0.1940 ca         1 4BI       0.484600
      7 C7          -0.1080    -3.3100     0.6370 ca         1 4BI      -0.107000
      8 C8          -0.6550    -4.5200     0.9760 ca         1 4BI      -0.151000
      9 C9          -2.0520    -4.6730     1.0600 ca         1 4BI      -0.145000
     10 C10         -2.8760    -3.6130     0.7890 ca         1 4BI      -0.168300
     11 C11         -0.8650     1.4910    -0.6750 c3         1 4BI       0.029400
     12 C12         -1.0970     1.7530    -2.1920 c          1 4BI       0.929600
     13 O13         -0.8630     0.7790    -2.9360 o          1 4BI      -0.814800
     14 O14         -1.4450     2.8930    -2.5300 o          1 4BI      -0.814800
     15 O15         -1.4840     2.4550     0.1340 os         1 4BI      -0.395600
     16 C16         -0.6700     3.2720     0.9680 c3         1 4BI       0.173800
     17 C17         -3.7720     0.8610    -0.4810 c3         1 4BI      -0.145400
     18 C18          1.0320    -0.7070    -0.0420 cp         1 4BI      -0.021000
     19 C19          1.6850    -0.4890    -1.2520 ca         1 4BI      -0.103000
     20 C20          3.0610    -0.3250    -1.2970 ca         1 4BI      -0.136000
     21 C21          3.7870    -0.3740    -0.1180 ca         1 4BI       0.021400
     22 C22          3.1610    -0.5870     1.1010 ca         1 4BI      -0.136000
     23 C23          1.7860    -0.7580     1.1290 ca         1 4BI      -0.103000
     24 CL           5.5070    -0.1660    -0.1660 cl         1 4BI      -0.146400
     25 C25          0.2910     4.1250     0.1400 c3         1 4BI      -0.101433
     26 C26         -1.6590     4.1760     1.6950 c3         1 4BI      -0.101433
     27 C27          0.1010     2.4370     1.9900 c3         1 4BI      -0.101433
     28 H7           0.9670    -3.2150     0.5660 ha         1 4BI       0.130000
     29 H8          -0.0100    -5.3640     1.1770 ha         1 4BI       0.115000
     30 H9          -2.4720    -5.6320     1.3320 ha         1 4BI       0.115000
     31 H10         -3.9530    -3.7130     0.8370 ha         1 4BI       0.136000
     32 H11          0.2250     1.5260    -0.5540 h1         1 4BI       0.036700
     33 H17         -3.8950     1.5300     0.3720 hc         1 4BI       0.058033
     34 H17A        -3.5330     1.4880    -1.3370 hc         1 4BI       0.058033
     35 H17B        -4.7240     0.3680    -0.6650 hc         1 4BI       0.058033
     36 H19          1.1050    -0.4300    -2.1630 ha         1 4BI       0.164500
     37 H20          3.5580    -0.1560    -2.2430 ha         1 4BI       0.139000
     38 H22          3.7340    -0.6200     2.0170 ha         1 4BI       0.139000
     39 H23          1.2960    -0.9260     2.0800 ha         1 4BI       0.164500
     40 H25         -0.2530     4.7220    -0.5910 hc         1 4BI       0.033922
     41 H25A         0.8500     4.7990     0.7910 hc         1 4BI       0.033922
     42 H25B         1.0230     3.5210    -0.3990 hc         1 4BI       0.033922
     43 H26         -2.3540     3.5910     2.3000 hc         1 4BI       0.033922
     44 H26A        -1.1340     4.8640     2.3590 hc         1 4BI       0.033922
     45 H26B        -2.2400     4.7710     0.9870 hc         1 4BI       0.033922
     46 H27          0.8400     1.7860     1.5230 hc         1 4BI       0.033922
     47 H27A         0.6390     3.0870     2.6820 hc         1 4BI       0.033922
     48 H27B        -0.5760     1.8090     2.5730 hc         1 4BI       0.033922
@<TRIPOS>BOND
     1     1     2 ar  
     2     1     6 ar  
     3     2     3 ar  
     4     2    10 ar  
     5     3     4 ar  
     6     3     7 ar  
     7     4     5 ar  
     8     4    18 1   
     9     5     6 ar  
    10     5    11 1   
    11     6    17 1   
    12     7     8 ar  
    13     7    28 1   
    14     8     9 ar  
    15     8    29 1   
    16     9    10 ar  
    17     9    30 1   
    18    10    31 1   
    19    11    12 1   
    20    11    15 1   
    21    11    32 1   
    22    12    13 1   
    23    12    14 1   
    24    15    16 1   
    25    16    25 1   
    26    16    26 1   
    27    16    27 1   
    28    17    33 1   
    29    17    34 1   
    30    17    35 1   
    31    18    19 ar  
    32    18    23 ar  
    33    19    20 ar  
    34    19    36 1   
    35    20    21 ar  
    36    20    37 1   
    37    21    22 ar  
    38    21    24 1   
    39    22    23 ar  
    40    22    38 1   
    41    23    39 1   
    42    25    40 1   
    43    25    41 1   
    44    25    42 1   
    45    26    43 1   
    46    26    44 1   
    47    26    45 1   
    48    27    46 1   
    49    27    47 1   
    50    27    48 1   
@<TRIPOS>SUBSTRUCTURE
     1 4BI         1 TEMP              0 ****  ****    0 ROOT
