@<TRIPOS>MOLECULE
4BJ
   70    74     1     0     0
SMALL
No Charge or Current Charge


@<TRIPOS>ATOM
      1 CBK         -3.6770     1.7640    -2.0500 c3         1 4BJ       0.141900
      2 OBJ         -3.7550     0.3520    -2.3220 os         1 4BJ      -0.325100
      3 CBE         -3.7280    -0.6020    -1.3150 ca         1 4BJ       0.092100
      4 CBD         -3.7540    -0.2410     0.0510 ca         1 4BJ      -0.079000
      5 CBF         -3.6500    -1.9690    -1.6720 ca         1 4BJ       0.161100
      6 OBI         -3.6230    -2.3010    -3.0170 os         1 4BJ      -0.317100
      7 CBL         -3.5060    -3.6600    -3.4750 c3         1 4BJ       0.142900
      8 CBG         -3.5880    -2.9560    -0.6610 ca         1 4BJ      -0.204000
      9 CBH         -3.5900    -2.5870     0.6940 ca         1 4BJ       0.005000
     10 CBC         -3.6740    -1.2300     1.0540 ca         1 4BJ      -0.305500
     11 SAZ         -3.5770    -0.7380     2.7820 sy         1 4BJ       1.139600
     12 OBA         -4.4010     0.4500     3.0210 o          1 4BJ      -0.535000
     13 OBB         -3.6130    -1.9140     3.6530 o          1 4BJ      -0.535000
     14 NAK         -2.0020    -0.1820     2.9420 nu         1 4BJ      -0.841100
     15 CAC         -1.4160     0.7410     2.0700 ca         1 4BJ       0.194000
     16 CAD         -1.8220     2.0920     2.0980 ca         1 4BJ      -0.050000
     17 CAE         -1.2520     2.9850     1.1810 ca         1 4BJ      -0.025400
     18 NAG         -1.7080     4.2740     0.7850 n          1 4BJ      -0.286000
     19 CBO         -2.4340     5.2060     1.6650 c3         1 4BJ       0.103300
     20 CAH         -1.1040     4.6560    -0.4210 c          1 4BJ       0.595000
     21 OBM         -1.2080     5.7290    -0.9990 o          1 4BJ      -0.559000
     22 NAI         -0.3190     3.5590    -0.7990 n          1 4BJ      -0.292000
     23 CBN          0.6640     3.5950    -1.8940 c3         1 4BJ       0.102300
     24 CAF         -0.3900     2.5380     0.1870 ca         1 4BJ       0.034600
     25 CAA         -0.0480     1.1870     0.0710 ca         1 4BJ      -0.177000
     26 CAB         -0.5130     0.2900     1.0630 ca         1 4BJ       0.123100
     27 OAJ         -0.2180    -1.0610     0.9970 os         1 4BJ      -0.263200
     28 CAL          0.7540    -1.5810     0.1780 ca         1 4BJ       0.129100
     29 CAM          2.0930    -1.1810     0.3180 ca         1 4BJ      -0.163000
     30 CAQ          0.3980    -2.5340    -0.7870 ca         1 4BJ      -0.152000
     31 CAP          1.3800    -3.0800    -1.6290 ca         1 4BJ      -0.063000
     32 CAO          2.7200    -2.6730    -1.5000 ca         1 4BJ      -0.202000
     33 CAN          3.0800    -1.7200    -0.5200 ca         1 4BJ       0.156100
     34 OAR          4.3780    -1.2860    -0.3460 os         1 4BJ      -0.338100
     35 CAS          5.4620    -1.7690    -1.1570 c3         1 4BJ       0.211900
     36 CAT          6.7440    -1.0820    -0.7050 ca         1 4BJ      -0.101300
     37 CAU          7.1310     0.1470    -1.2760 ca         1 4BJ      -0.083000
     38 CAV          8.3150     0.7800    -0.8590 ca         1 4BJ      -0.114000
     39 CAW          9.1190     0.1890     0.1310 ca         1 4BJ      -0.095000
     40 CAX          8.7370    -1.0350     0.7040 ca         1 4BJ      -0.114000
     41 CAY          7.5530    -1.6690     0.2880 ca         1 4BJ      -0.083000
     42 H1          -3.6750     2.3320    -2.9890 h1         1 4BJ       0.044367
     43 H2          -4.5360     2.0970    -1.4550 h1         1 4BJ       0.044367
     44 H3          -2.7550     2.0050    -1.5050 h1         1 4BJ       0.044367
     45 H4          -3.8100     0.8040     0.3460 ha         1 4BJ       0.141000
     46 H5          -4.3520    -4.2640    -3.1240 h1         1 4BJ       0.044700
     47 H6          -3.4970    -3.6910    -4.5710 h1         1 4BJ       0.044700
     48 H7          -2.5740    -4.1130    -3.1140 h1         1 4BJ       0.044700
     49 H8          -3.5230    -4.0110    -0.9060 ha         1 4BJ       0.124000
     50 H9          -3.5150    -3.3620     1.4570 ha         1 4BJ       0.139000
     51 H10         -1.4960    -1.0580     2.9820 hn         1 4BJ       0.496000
     52 H11         -2.5800     2.4260     2.8000 ha         1 4BJ       0.157000
     53 H12         -1.7640     5.5580     2.4600 h1         1 4BJ       0.055367
     54 H13         -2.7950     6.0680     1.0910 h1         1 4BJ       0.055367
     55 H14         -3.2930     4.6970     2.1170 h1         1 4BJ       0.055367
     56 H15          0.9780     4.6280    -2.0880 h1         1 4BJ       0.053033
     57 H16          1.5470     3.0020    -1.6230 h1         1 4BJ       0.053033
     58 H17          0.2150     3.1770    -2.8040 h1         1 4BJ       0.053033
     59 H18          0.5330     0.8440    -0.7800 ha         1 4BJ       0.143000
     60 H19          2.3670    -0.4520     1.0740 ha         1 4BJ       0.145000
     61 H20         -0.6390    -2.8440    -0.8840 ha         1 4BJ       0.135000
     62 H21          1.1030    -3.8160    -2.3820 ha         1 4BJ       0.117000
     63 H22          3.4610    -3.1090    -2.1640 ha         1 4BJ       0.121000
     64 H23          5.5710    -2.8560    -1.0500 h1         1 4BJ       0.042200
     65 H24          5.2820    -1.5450    -2.2170 h1         1 4BJ       0.042200
     66 H25          6.5130     0.6120    -2.0410 ha         1 4BJ       0.114000
     67 H26          8.6090     1.7290    -1.3030 ha         1 4BJ       0.116000
     68 H27         10.0350     0.6800     0.4530 ha         1 4BJ       0.115000
     69 H28          9.3570    -1.4930     1.4720 ha         1 4BJ       0.116000
     70 H29          7.2630    -2.6160     0.7390 ha         1 4BJ       0.114000
@<TRIPOS>BOND
     1     1     2 1   
     2     1    42 1   
     3     1    43 1   
     4     1    44 1   
     5     2     3 1   
     6     3     4 ar  
     7     3     5 ar  
     8     4    10 ar  
     9     4    45 1   
    10     5     6 1   
    11     5     8 ar  
    12     6     7 1   
    13     7    46 1   
    14     7    47 1   
    15     7    48 1   
    16     8     9 ar  
    17     8    49 1   
    18     9    10 ar  
    19     9    50 1   
    20    10    11 1   
    21    11    12 2   
    22    11    13 2   
    23    11    14 1   
    24    14    15 1   
    25    14    51 1   
    26    15    16 ar  
    27    15    26 ar  
    28    16    17 ar  
    29    16    52 1   
    30    17    18 1   
    31    17    24 ar  
    32    18    19 1   
    33    18    20 1   
    34    19    53 1   
    35    19    54 1   
    36    19    55 1   
    37    20    21 2   
    38    20    22 1   
    39    22    23 1   
    40    22    24 1   
    41    23    56 1   
    42    23    57 1   
    43    23    58 1   
    44    24    25 ar  
    45    25    26 ar  
    46    25    59 1   
    47    26    27 1   
    48    27    28 1   
    49    28    29 ar  
    50    28    30 ar  
    51    29    33 ar  
    52    29    60 1   
    53    30    31 ar  
    54    30    61 1   
    55    31    32 ar  
    56    31    62 1   
    57    32    33 ar  
    58    32    63 1   
    59    33    34 1   
    60    34    35 1   
    61    35    36 1   
    62    35    64 1   
    63    35    65 1   
    64    36    37 ar  
    65    36    41 ar  
    66    37    38 ar  
    67    37    66 1   
    68    38    39 ar  
    69    38    67 1   
    70    39    40 ar  
    71    39    68 1   
    72    40    41 ar  
    73    40    69 1   
    74    41    70 1   
@<TRIPOS>SUBSTRUCTURE
     1 4BJ         1 TEMP              0 ****  ****    0 ROOT
