@<TRIPOS>MOLECULE
4BJ
   70    74     1     0     0
SMALL
abcg2


@<TRIPOS>ATOM
      1 CBK         -3.7630     1.3170    -2.1510 c3         1 4BJ       0.141900
      2 OBJ         -3.7470    -0.0860    -2.3340 os         1 4BJ      -0.325100
      3 CBE         -3.6220    -0.8630    -1.2490 ca         1 4BJ       0.092100
      4 CBD         -3.6240    -0.4060     0.0530 ca         1 4BJ      -0.079000
      5 CBF         -3.4810    -2.2480    -1.5020 ca         1 4BJ       0.161100
      6 OBI         -3.5030    -2.5990    -2.7910 os         1 4BJ      -0.317100
      7 CBL         -3.3800    -3.9700    -3.1210 c3         1 4BJ       0.142900
      8 CBG         -3.3220    -3.1280    -0.4420 ca         1 4BJ      -0.204000
      9 CBH         -3.2850    -2.6610     0.8680 ca         1 4BJ       0.005000
     10 CBC         -3.4420    -1.3120     1.1010 ca         1 4BJ      -0.305500
     11 SAZ         -3.2980    -0.6780     2.7370 sy         1 4BJ       1.139600
     12 OBA         -4.1860     0.4660     2.8560 o          1 4BJ      -0.535000
     13 OBB         -3.3810    -1.7680     3.6940 o          1 4BJ      -0.535000
     14 NAK         -1.7380    -0.0850     2.8740 nu         1 4BJ      -0.841100
     15 CAC         -1.3250     0.8720     1.9140 ca         1 4BJ       0.194000
     16 CAD         -1.7380     2.1970     2.0560 ca         1 4BJ      -0.050000
     17 CAE         -1.3770     3.0920     1.0750 ca         1 4BJ      -0.025400
     18 NAG         -1.6380     4.4360     0.9110 n          1 4BJ      -0.286000
     19 CBO         -2.4110     5.2510     1.8120 c3         1 4BJ       0.103300
     20 CAH         -1.0450     4.8880    -0.2420 c          1 4BJ       0.595000
     21 OBM         -1.0740     6.0210    -0.6870 o          1 4BJ      -0.559000
     22 NAI         -0.4090     3.7990    -0.8020 n          1 4BJ      -0.292000
     23 CBN          0.3290     3.8230    -2.0380 c3         1 4BJ       0.102300
     24 CAF         -0.6000     2.6920    -0.0130 ca         1 4BJ       0.034600
     25 CAA         -0.1620     1.3910    -0.1620 ca         1 4BJ      -0.177000
     26 CAB         -0.5490     0.4780     0.8160 ca         1 4BJ       0.123100
     27 OAJ         -0.2270    -0.8410     0.7670 os         1 4BJ      -0.263200
     28 CAL          0.7300    -1.2690    -0.1190 ca         1 4BJ       0.129100
     29 CAM          2.0640    -1.0440     0.1630 ca         1 4BJ      -0.163000
     30 CAQ          0.3300    -1.9490    -1.2600 ca         1 4BJ      -0.152000
     31 CAP          1.3100    -2.4160    -2.1210 ca         1 4BJ      -0.063000
     32 CAO          2.6590    -2.2040    -1.8680 ca         1 4BJ      -0.202000
     33 CAN          3.0400    -1.5130    -0.7190 ca         1 4BJ       0.156100
     34 OAR          4.3130    -1.2510    -0.3730 os         1 4BJ      -0.338100
     35 CAS          5.3590    -1.6870    -1.2360 c3         1 4BJ       0.211900
     36 CAT          6.6490    -1.2120    -0.6420 ca         1 4BJ      -0.101300
     37 CAU          7.1630     0.0360    -0.9820 ca         1 4BJ      -0.083000
     38 CAV          8.3400     0.4950    -0.4060 ca         1 4BJ      -0.114000
     39 CAW          9.0130    -0.2930     0.5180 ca         1 4BJ      -0.095000
     40 CAX          8.5070    -1.5400     0.8630 ca         1 4BJ      -0.114000
     41 CAY          7.3300    -1.9950     0.2850 ca         1 4BJ      -0.083000
     42 H1          -3.7840     1.7580    -3.1440 h1         1 4BJ       0.044367
     43 H2          -4.6470     1.6480    -1.6000 h1         1 4BJ       0.044367
     44 H3          -2.8680     1.6630    -1.6250 h1         1 4BJ       0.044367
     45 H4          -3.7710     0.6450     0.2620 ha         1 4BJ       0.141000
     46 H5          -4.1970    -4.5620    -2.7020 h1         1 4BJ       0.044700
     47 H6          -3.4230    -4.0290    -4.2050 h1         1 4BJ       0.044700
     48 H7          -2.4290    -4.3870    -2.7820 h1         1 4BJ       0.044700
     49 H8          -3.2140    -4.1900    -0.6130 ha         1 4BJ       0.124000
     50 H9          -3.1400    -3.3620     1.6770 ha         1 4BJ       0.139000
     51 H10         -1.0770    -0.8400     3.0290 hn         1 4BJ       0.496000
     52 H11         -2.3190     2.4900     2.9190 ha         1 4BJ       0.157000
     53 H12         -1.8890     5.3970     2.7580 h1         1 4BJ       0.055367
     54 H13         -2.5860     6.2200     1.3550 h1         1 4BJ       0.055367
     55 H14         -3.3760     4.7840     2.0100 h1         1 4BJ       0.055367
     56 H15          0.3360     4.8360    -2.4280 h1         1 4BJ       0.053033
     57 H16          1.3580     3.5040    -1.8780 h1         1 4BJ       0.053033
     58 H17         -0.1340     3.1680    -2.7770 h1         1 4BJ       0.053033
     59 H18          0.4390     1.0930    -1.0110 ha         1 4BJ       0.143000
     60 H19          2.3590    -0.5170     1.0620 ha         1 4BJ       0.145000
     61 H20         -0.7190    -2.1130    -1.4600 ha         1 4BJ       0.135000
     62 H21          1.0220    -2.9530    -3.0150 ha         1 4BJ       0.117000
     63 H22          3.3890    -2.5840    -2.5690 ha         1 4BJ       0.121000
     64 H23          5.3490    -2.7780    -1.3220 h1         1 4BJ       0.042200
     65 H24          5.2210    -1.2690    -2.2390 h1         1 4BJ       0.042200
     66 H25          6.6420     0.6530    -1.7050 ha         1 4BJ       0.114000
     67 H26          8.7300     1.4660    -0.6800 ha         1 4BJ       0.116000
     68 H27          9.9330     0.0610     0.9660 ha         1 4BJ       0.115000
     69 H28          9.0300    -2.1580     1.5810 ha         1 4BJ       0.116000
     70 H29          6.9410    -2.9700     0.5530 ha         1 4BJ       0.114000
@<TRIPOS>BOND
     1     1     2 1   
     2     1    42 1   
     3     1    43 1   
     4     1    44 1   
     5     2     3 1   
     6     3     4 ar  
     7     3     5 ar  
     8     4    10 ar  
     9     4    45 1   
    10     5     6 1   
    11     5     8 ar  
    12     6     7 1   
    13     7    46 1   
    14     7    47 1   
    15     7    48 1   
    16     8     9 ar  
    17     8    49 1   
    18     9    10 ar  
    19     9    50 1   
    20    10    11 1   
    21    11    12 2   
    22    11    13 2   
    23    11    14 1   
    24    14    15 1   
    25    14    51 1   
    26    15    16 ar  
    27    15    26 ar  
    28    16    17 ar  
    29    16    52 1   
    30    17    18 1   
    31    17    24 ar  
    32    18    19 1   
    33    18    20 1   
    34    19    53 1   
    35    19    54 1   
    36    19    55 1   
    37    20    21 2   
    38    20    22 1   
    39    22    23 1   
    40    22    24 1   
    41    23    56 1   
    42    23    57 1   
    43    23    58 1   
    44    24    25 ar  
    45    25    26 ar  
    46    25    59 1   
    47    26    27 1   
    48    27    28 1   
    49    28    29 ar  
    50    28    30 ar  
    51    29    33 ar  
    52    29    60 1   
    53    30    31 ar  
    54    30    61 1   
    55    31    32 ar  
    56    31    62 1   
    57    32    33 ar  
    58    32    63 1   
    59    33    34 1   
    60    34    35 1   
    61    35    36 1   
    62    35    64 1   
    63    35    65 1   
    64    36    37 ar  
    65    36    41 ar  
    66    37    38 ar  
    67    37    66 1   
    68    38    39 ar  
    69    38    67 1   
    70    39    40 ar  
    71    39    68 1   
    72    40    41 ar  
    73    40    69 1   
    74    41    70 1   
@<TRIPOS>SUBSTRUCTURE
     1 4BJ         1 TEMP              0 ****  ****    0 ROOT
