@<TRIPOS>MOLECULE
4BK
   64    67     1     0     0
SMALL
bcc


@<TRIPOS>ATOM
      1 CAX          4.3430     0.2680     3.5130 c3         1 4BK      -0.088600
      2 CAW          4.7180     1.4720     2.6550 c3         1 4BK      -0.062700
      3 CAY          6.1390     1.9350     2.9590 c3         1 4BK      -0.088600
      4 CAV          4.6120     1.1770     1.1690 c3         1 4BK       0.140400
      5 OAU          3.2920     0.7610     0.8670 os         1 4BK      -0.333900
      6 CAS          2.9620     0.4950    -0.4090 ca         1 4BK       0.165100
      7 CAT          1.6400     0.1000    -0.6190 ca         1 4BK      -0.224000
      8 CAR          3.8370     0.6140    -1.4870 ca         1 4BK      -0.243000
      9 CAQ          3.3660     0.3480    -2.7670 ca         1 4BK      -0.067000
     10 CAP          2.0600    -0.0450    -2.9940 ca         1 4BK      -0.177000
     11 CAO          1.2050    -0.1660    -1.9040 ca         1 4BK       0.170100
     12 OAN         -0.0860    -0.5190    -2.1790 os         1 4BK      -0.253200
     13 CAC         -0.8140    -1.2440    -1.2810 ca         1 4BK       0.094100
     14 CAD         -0.2870    -2.3820    -0.6720 ca         1 4BK      -0.165000
     15 CAE         -1.1190    -3.0830     0.1740 ca         1 4BK       0.022600
     16 NAG         -0.9090    -4.2180     0.9160 n          1 4BK      -0.359000
     17 CAL          0.3360    -4.9390     1.0000 c3         1 4BK       0.104300
     18 CAH         -2.0610    -4.5540     1.5960 c          1 4BK       0.806500
     19 OAJ         -2.2150    -5.5020     2.3430 o          1 4BK      -0.634500
     20 NAI         -2.9960    -3.6040     1.2600 n          1 4BK      -0.354000
     21 CAK         -4.3530    -3.5750     1.7420 c3         1 4BK       0.102300
     22 CAF         -2.4450    -2.6940     0.3870 ca         1 4BK      -0.004400
     23 CAA         -2.9800    -1.5980    -0.2480 ca         1 4BK      -0.085000
     24 CAB         -2.1400    -0.8530    -1.0810 ca         1 4BK       0.092600
     25 NAM         -2.6650     0.2730    -1.7580 nu         1 4BK      -0.669500
     26 SAZ         -2.9110     1.6860    -0.9150 sy         1 4BK       1.266800
     27 OBA         -3.4110     2.6240    -1.9050 o          1 4BK      -0.605800
     28 OBB         -3.7010     1.3570     0.2580 o          1 4BK      -0.605800
     29 CBC         -1.3690     2.2460    -0.3380 cc         1 4BK       0.048200
     30 CBG         -0.9440     2.2530     0.9580 cd         1 4BK      -0.131600
     31 NBD         -0.4460     2.7940    -1.1690 nc         1 4BK      -0.596000
     32 CBE          0.5480     3.1400    -0.3910 cd         1 4BK       0.412800
     33 CBI          1.7910     3.8140    -0.8420 c3         1 4BK      -0.122400
     34 NBF          0.2820     2.8350     0.9100 na         1 4BK      -0.168900
     35 CBH          1.1270     3.0790     2.0620 c3         1 4BK       0.019600
     36 H1           4.5010     0.4890     4.5700 hc         1 4BK       0.039200
     37 H2           3.2990    -0.0200     3.3910 hc         1 4BK       0.039200
     38 H3           4.9640    -0.5970     3.2620 hc         1 4BK       0.039200
     39 H4           4.0360     2.2970     2.8890 hc         1 4BK       0.048700
     40 H5           6.8610     1.1370     2.7680 hc         1 4BK       0.039200
     41 H6           6.4250     2.7960     2.3520 hc         1 4BK       0.039200
     42 H7           6.2350     2.2210     4.0060 hc         1 4BK       0.039200
     43 H8           4.8680     2.0770     0.5960 h1         1 4BK       0.036700
     44 H9           5.3300     0.3930     0.8930 h1         1 4BK       0.036700
     45 H10          0.9700     0.0230     0.2290 ha         1 4BK       0.155000
     46 H11          4.8670     0.9120    -1.3530 ha         1 4BK       0.138000
     47 H12          4.0440     0.4430    -3.6050 ha         1 4BK       0.135000
     48 H13          1.7040    -0.2560    -3.9940 ha         1 4BK       0.154000
     49 H14          0.7320    -2.6960    -0.8580 ha         1 4BK       0.157000
     50 H15          0.1810    -5.8560     1.5610 h1         1 4BK       0.052700
     51 H16          0.6930    -5.1970     0.0040 h1         1 4BK       0.052700
     52 H17          1.0970    -4.3440     1.5050 h1         1 4BK       0.052700
     53 H18         -4.4870    -4.3620     2.4780 h1         1 4BK       0.055033
     54 H19         -4.5670    -2.6170     2.2150 h1         1 4BK       0.055033
     55 H20         -5.0600    -3.7330     0.9270 h1         1 4BK       0.055033
     56 H21         -4.0150    -1.3130    -0.1240 ha         1 4BK       0.174000
     57 H22         -2.2690     0.4540    -2.6740 hn         1 4BK       0.453800
     58 H23         -1.3940     1.9160     1.8760 h4         1 4BK       0.198000
     59 H24          1.8180     4.8570    -0.5230 hc         1 4BK       0.057033
     60 H25          2.6860     3.3280    -0.4560 hc         1 4BK       0.057033
     61 H26          1.8370     3.7880    -1.9270 hc         1 4BK       0.057033
     62 H27          1.4730     2.1390     2.4850 h1         1 4BK       0.060033
     63 H28          1.9900     3.6650     1.7630 h1         1 4BK       0.060033
     64 H29          0.5750     3.6360     2.8150 h1         1 4BK       0.060033
@<TRIPOS>BOND
     1     1     2 1   
     2     1    36 1   
     3     1    37 1   
     4     1    38 1   
     5     2     3 1   
     6     2     4 1   
     7     2    39 1   
     8     3    40 1   
     9     3    41 1   
    10     3    42 1   
    11     4     5 1   
    12     4    43 1   
    13     4    44 1   
    14     5     6 1   
    15     6     7 ar  
    16     6     8 ar  
    17     7    11 ar  
    18     7    45 1   
    19     8     9 ar  
    20     8    46 1   
    21     9    10 ar  
    22     9    47 1   
    23    10    11 ar  
    24    10    48 1   
    25    11    12 1   
    26    12    13 1   
    27    13    14 ar  
    28    13    24 ar  
    29    14    15 ar  
    30    14    49 1   
    31    15    16 1   
    32    15    22 ar  
    33    16    17 1   
    34    16    18 1   
    35    17    50 1   
    36    17    51 1   
    37    17    52 1   
    38    18    19 2   
    39    18    20 1   
    40    20    21 1   
    41    20    22 1   
    42    21    53 1   
    43    21    54 1   
    44    21    55 1   
    45    22    23 ar  
    46    23    24 ar  
    47    23    56 1   
    48    24    25 1   
    49    25    26 1   
    50    25    57 1   
    51    26    27 2   
    52    26    28 2   
    53    26    29 1   
    54    29    30 2   
    55    29    31 1   
    56    30    34 1   
    57    30    58 1   
    58    31    32 2   
    59    32    33 1   
    60    32    34 1   
    61    33    59 1   
    62    33    60 1   
    63    33    61 1   
    64    34    35 1   
    65    35    62 1   
    66    35    63 1   
    67    35    64 1   
@<TRIPOS>SUBSTRUCTURE
     1 4BK         1 TEMP              0 ****  ****    0 ROOT
