@<TRIPOS>MOLECULE
4BK
   64    67     1     0     0
SMALL
No Charge or Current Charge


@<TRIPOS>ATOM
      1 CAX          4.5110     0.3180     3.3050 c3         1 4BK      -0.088600
      2 CAW          4.7550     1.5850     2.4490 c3         1 4BK      -0.062700
      3 CAY          6.0770     2.2790     2.8480 c3         1 4BK      -0.088600
      4 CAV          4.7180     1.2900     0.9290 c3         1 4BK       0.163600
      5 OAU          3.4140     0.7840     0.5980 os         1 4BK      -0.357100
      6 CAS          3.0520     0.4720    -0.6940 ca         1 4BK       0.165100
      7 CAT          1.7480     0.0040    -0.9070 ca         1 4BK      -0.206000
      8 CAR          3.9300     0.6200    -1.7880 ca         1 4BK      -0.225000
      9 CAQ          3.4950     0.3030    -3.0860 ca         1 4BK      -0.049000
     10 CAP          2.1850    -0.1620    -3.2930 ca         1 4BK      -0.159000
     11 CAO          1.3120    -0.3190    -2.2060 ca         1 4BK       0.170100
     12 OAN          0.0290    -0.7600    -2.4480 os         1 4BK      -0.253200
     13 CAC         -0.7630    -1.3160    -1.4650 ca         1 4BK       0.094100
     14 CAD         -0.2940    -2.4380    -0.7470 ca         1 4BK      -0.147000
     15 CAE         -1.0880    -2.9310     0.2950 ca         1 4BK       0.022600
     16 NAG         -1.0040    -4.1770     0.9750 n          1 4BK      -0.292000
     17 CAL          0.2450    -4.9280     1.1840 c3         1 4BK       0.104300
     18 CAH         -2.1890    -4.4250     1.6820 c          1 4BK       0.597000
     19 OAJ         -2.4240    -5.3590     2.4370 o          1 4BK      -0.559000
     20 NAI         -3.0290    -3.3440     1.3790 n          1 4BK      -0.287000
     21 CAK         -4.2990    -3.0740     2.0750 c3         1 4BK       0.102300
     22 CAF         -2.3530    -2.4140     0.5410 ca         1 4BK      -0.004400
     23 CAA         -2.8830    -1.3770    -0.2380 ca         1 4BK      -0.067000
     24 CAB         -2.0590    -0.7820    -1.2180 ca         1 4BK       0.231000
     25 NAM         -2.5300     0.2930    -1.9780 nu         1 4BK      -0.863100
     26 SAZ         -2.9360     1.8100    -1.3720 sy         1 4BK       1.125200
     27 OBA         -3.0580     2.6330    -2.5800 o          1 4BK      -0.535000
     28 OBB         -4.0570     1.5570    -0.4610 o          1 4BK      -0.535000
     29 CBC         -1.4260     2.2570    -0.4290 cc         1 4BK      -0.017100
     30 CBG         -1.2020     1.8820     0.8740 cd         1 4BK      -0.099000
     31 NBD         -0.3510     2.9690    -0.9260 nc         1 4BK      -0.596000
     32 CBE          0.5270     3.0320     0.0610 cd         1 4BK       0.412800
     33 CBI          1.8440     3.7460    -0.0710 c3         1 4BK      -0.122400
     34 NBF          0.0510     2.3810     1.1930 na         1 4BK      -0.147500
     35 CBH          0.7390     2.2280     2.4840 c3         1 4BK       0.048900
     36 H1           4.5300     0.5640     4.3740 hc         1 4BK       0.039200
     37 H2           3.5340    -0.1260     3.0830 hc         1 4BK       0.039200
     38 H3           5.2830    -0.4360     3.1130 hc         1 4BK       0.039200
     39 H4           3.9440     2.2920     2.6660 hc         1 4BK       0.048700
     40 H5           6.9360     1.6240     2.6550 hc         1 4BK       0.039200
     41 H6           6.2160     3.2050     2.2770 hc         1 4BK       0.039200
     42 H7           6.0740     2.5370     3.9140 hc         1 4BK       0.039200
     43 H8           4.9170     2.2180     0.3770 h1         1 4BK       0.036700
     44 H9           5.4960     0.5580     0.6750 h1         1 4BK       0.036700
     45 H10          1.0810    -0.0910    -0.0570 ha         1 4BK       0.137000
     46 H11          4.9450     0.9800    -1.6530 ha         1 4BK       0.120000
     47 H12          4.1700     0.4200    -3.9320 ha         1 4BK       0.117000
     48 H13          1.8460    -0.4040    -4.2970 ha         1 4BK       0.136000
     49 H14          0.6560    -2.9030    -0.9970 ha         1 4BK       0.139000
     50 H15          0.0260    -5.9260     1.5840 h1         1 4BK       0.052700
     51 H16          0.7760    -5.0380     0.2310 h1         1 4BK       0.052700
     52 H17          0.8840    -4.3880     1.8940 h1         1 4BK       0.052700
     53 H18         -4.2960    -3.5470     3.0650 h1         1 4BK       0.055033
     54 H19         -4.4340    -1.9930     2.2010 h1         1 4BK       0.055033
     55 H20         -5.1330    -3.4760     1.4860 h1         1 4BK       0.055033
     56 H21         -3.9090    -1.0500    -0.1030 ha         1 4BK       0.156000
     57 H22         -1.9120     0.5380    -2.7420 hn         1 4BK       0.509000
     58 H23         -1.8170     1.3120     1.5620 h4         1 4BK       0.180000
     59 H24          1.6970     4.8320    -0.0630 hc         1 4BK       0.057033
     60 H25          2.5290     3.4940     0.7450 hc         1 4BK       0.057033
     61 H26          2.3380     3.4780    -1.0120 hc         1 4BK       0.057033
     62 H27          1.5220     1.4660     2.3940 h1         1 4BK       0.060033
     63 H28          1.1900     3.1820     2.7830 h1         1 4BK       0.060033
     64 H29          0.0220     1.9150     3.2530 h1         1 4BK       0.060033
@<TRIPOS>BOND
     1     1     2 1   
     2     1    36 1   
     3     1    37 1   
     4     1    38 1   
     5     2     3 1   
     6     2     4 1   
     7     2    39 1   
     8     3    40 1   
     9     3    41 1   
    10     3    42 1   
    11     4     5 1   
    12     4    43 1   
    13     4    44 1   
    14     5     6 1   
    15     6     7 ar  
    16     6     8 ar  
    17     7    11 ar  
    18     7    45 1   
    19     8     9 ar  
    20     8    46 1   
    21     9    10 ar  
    22     9    47 1   
    23    10    11 ar  
    24    10    48 1   
    25    11    12 1   
    26    12    13 1   
    27    13    14 ar  
    28    13    24 ar  
    29    14    15 ar  
    30    14    49 1   
    31    15    16 1   
    32    15    22 ar  
    33    16    17 1   
    34    16    18 1   
    35    17    50 1   
    36    17    51 1   
    37    17    52 1   
    38    18    19 2   
    39    18    20 1   
    40    20    21 1   
    41    20    22 1   
    42    21    53 1   
    43    21    54 1   
    44    21    55 1   
    45    22    23 ar  
    46    23    24 ar  
    47    23    56 1   
    48    24    25 1   
    49    25    26 1   
    50    25    57 1   
    51    26    27 2   
    52    26    28 2   
    53    26    29 1   
    54    29    30 2   
    55    29    31 1   
    56    30    34 1   
    57    30    58 1   
    58    31    32 2   
    59    32    33 1   
    60    32    34 1   
    61    33    59 1   
    62    33    60 1   
    63    33    61 1   
    64    34    35 1   
    65    35    62 1   
    66    35    63 1   
    67    35    64 1   
@<TRIPOS>SUBSTRUCTURE
     1 4BK         1 TEMP              0 ****  ****    0 ROOT
