@<TRIPOS>MOLECULE
4BL
   21    22     1     0     0
SMALL
bcc


@<TRIPOS>ATOM
      1 C1          -1.5880     0.0770    -0.0040 cc         1 4BL      -0.091300
      2 N2          -0.6800    -0.9490     0.0190 na         1 4BL      -0.147400
      3 C3          -0.9110     1.2680    -0.0290 cd         1 4BL      -0.215200
      4 C4           0.5850    -0.4510     0.0110 ca         1 4BL      -0.072200
      5 C5          -3.0640    -0.2050    -0.0010 c          1 4BL       0.937800
      6 C6           0.4820     0.9580    -0.0200 ca         1 4BL      -0.099800
      7 C7           1.8170    -1.1090     0.0290 ca         1 4BL      -0.138000
      8 O8          -3.3850    -1.4110     0.0240 o          1 4BL      -0.818800
      9 C9           1.6640     1.7120    -0.0330 ca         1 4BL      -0.090000
     10 O10         -3.8160     0.7850    -0.0220 o          1 4BL      -0.818800
     11 C11          2.9710    -0.3490     0.0150 ca         1 4BL      -0.102300
     12 C12          2.8780     1.0610    -0.0160 ca         1 4BL      -0.179000
     13 C13          4.3240    -1.0030     0.0300 c3         1 4BL      -0.030800
     14 H3          -1.3570     2.2490    -0.0520 ha         1 4BL       0.154000
     15 H7           1.8700    -2.1920     0.0520 ha         1 4BL       0.114000
     16 H9           1.6250     2.7950    -0.0560 ha         1 4BL       0.115000
     17 H12          3.7920     1.6440    -0.0260 ha         1 4BL       0.103000
     18 H13          4.8950    -0.7580    -0.8680 hc         1 4BL       0.023700
     19 H13A         4.9180    -0.6680     0.8830 hc         1 4BL       0.023700
     20 H13B         4.2430    -2.0880     0.0860 hc         1 4BL       0.023700
     21 HN2         -0.9440    -1.9210     0.0390 hn         1 4BL       0.308700
@<TRIPOS>BOND
     1     1     2 1   
     2     1     3 2   
     3     1     5 1   
     4     2     4 1   
     5     2    21 1   
     6     3     6 1   
     7     3    14 1   
     8     4     6 ar  
     9     4     7 ar  
    10     5     8 1   
    11     5    10 1   
    12     6     9 ar  
    13     7    11 ar  
    14     7    15 1   
    15     9    12 ar  
    16     9    16 1   
    17    11    12 ar  
    18    11    13 1   
    19    12    17 1   
    20    13    18 1   
    21    13    19 1   
    22    13    20 1   
@<TRIPOS>SUBSTRUCTURE
     1 4BL         1 TEMP              0 ****  ****    0 ROOT
