@<TRIPOS>MOLECULE
4BL
   21    22     1     0     0
SMALL
No Charge or Current Charge


@<TRIPOS>ATOM
      1 C1          -1.6500    -0.0090    -0.0170 cc         1 4BL      -0.091300
      2 N2          -0.6720    -1.0320    -0.0190 na         1 4BL      -0.197700
      3 C3          -0.9040     1.1690     0.0000 cd         1 4BL      -0.265200
      4 C4           0.6020    -0.4830    -0.0030 ca         1 4BL      -0.072200
      5 C5          -3.1420    -0.1070    -0.0310 c          1 4BL       0.727200
      6 C6           0.5060     0.8790     0.0090 ca         1 4BL      -0.099800
      7 C7           1.8460    -1.1280     0.0010 ca         1 4BL      -0.120000
      8 O8          -3.6450    -1.2220    -0.0460 o          1 4BL      -0.713500
      9 C9           1.6320     1.7100     0.0260 ca         1 4BL      -0.072000
     10 O10         -3.8070     0.9200    -0.0270 o          1 4BL      -0.713500
     11 C11          3.0120    -0.3270     0.0190 ca         1 4BL      -0.102300
     12 C12          2.8990     1.0880     0.0300 ca         1 4BL      -0.161000
     13 C13          4.3860    -0.9820     0.0210 c3         1 4BL      -0.030800
     14 H3          -1.3370     2.1670     0.0060 ha         1 4BL       0.204000
     15 H7           1.9090    -2.2140    -0.0110 ha         1 4BL       0.096000
     16 H9           1.5340     2.7930     0.0340 ha         1 4BL       0.097000
     17 H12          3.7950     1.7040     0.0410 ha         1 4BL       0.085000
     18 H13          4.7600    -1.1040    -1.0030 hc         1 4BL       0.023700
     19 H13A         5.1150    -0.3780     0.5750 hc         1 4BL       0.023700
     20 H13B         4.3570    -1.9730     0.4880 hc         1 4BL       0.023700
     21 HN2         -0.8790    -2.0260    -0.0310 hn         1 4BL       0.359000
@<TRIPOS>BOND
     1     1     2 1   
     2     1     3 2   
     3     1     5 1   
     4     2     4 1   
     5     2    21 1   
     6     3     6 1   
     7     3    14 1   
     8     4     6 ar  
     9     4     7 ar  
    10     5     8 1   
    11     5    10 1   
    12     6     9 ar  
    13     7    11 ar  
    14     7    15 1   
    15     9    12 ar  
    16     9    16 1   
    17    11    12 ar  
    18    11    13 1   
    19    12    17 1   
    20    13    18 1   
    21    13    19 1   
    22    13    20 1   
@<TRIPOS>SUBSTRUCTURE
     1 4BL         1 TEMP              0 ****  ****    0 ROOT
