@<TRIPOS>MOLECULE
4BM
   40    41     1     0     0
SMALL
No Charge or Current Charge


@<TRIPOS>ATOM
      1 C01         -0.0130    -0.4140    -0.6010 ca         1 4BM       0.286000
      2 C02         -0.4330     0.0180     0.6720 ca         1 4BM      -0.151000
      3 C03         -0.2850     1.3650     1.0530 ca         1 4BM      -0.073000
      4 C04          0.2890     2.2890     0.1640 ca         1 4BM       0.174000
      5 C05          0.7250     1.8710    -1.1020 ca         1 4BM      -0.078000
      6 C06          0.5810     0.5260    -1.4810 ca         1 4BM       0.134000
      7 N07         -0.1520    -1.7640    -0.9710 nu         1 4BM      -0.990000
      8 C08         -0.9260    -2.8280    -0.4690 ca         1 4BM       0.322000
      9 C09         -2.2960    -2.6740    -0.1230 ca         1 4BM      -0.181600
     10 C10         -2.9890    -3.7660     0.4580 ca         1 4BM      -0.058000
     11 C11         -2.3470    -4.9960     0.6630 ca         1 4BM      -0.148000
     12 C12         -1.0100    -5.1580     0.2840 ca         1 4BM       0.172000
     13 C13         -0.3010    -4.0860    -0.2820 ca         1 4BM       0.106000
     14 C14         -3.0580    -1.4030    -0.4070 c          1 4BM       0.624700
     15 N15         -4.0140    -1.0560     0.5330 ns         1 4BM      -0.373400
     16 O16         -2.9170    -0.7370    -1.4260 o          1 4BM      -0.573100
     17 O17         -4.7750     0.1440     0.3150 os         1 4BM      -0.222100
     18 C18         -4.1560     1.2950     0.9220 c3         1 4BM       0.072600
     19 C19         -4.0200     2.4010    -0.1540 c3         1 4BM       0.168300
     20 C20         -3.5640     3.7510     0.4760 c3         1 4BM       0.164600
     21 O21         -3.0920     1.9770    -1.1750 oh         1 4BM      -0.661000
     22 O22         -3.5740     4.8190    -0.4880 oh         1 4BM      -0.637000
     23 I23          0.5260     4.3570     0.7570 i          1 4BM      -0.303000
     24 F24          1.0190     0.1390    -2.7040 f          1 4BM      -0.164000
     25 F25          1.0010    -4.2610    -0.6260 f          1 4BM      -0.147000
     26 F26         -0.4050    -6.3530     0.4730 f          1 4BM      -0.150000
     27 H02         -0.8610    -0.6900     1.3760 ha         1 4BM       0.124000
     28 H03         -0.6080     1.6940     2.0380 ha         1 4BM       0.129000
     29 H05          1.1770     2.5840    -1.7840 ha         1 4BM       0.153000
     30 HN07         0.5230    -2.0560    -1.6830 hn         1 4BM       0.526000
     31 H10         -4.0430    -3.6820     0.7190 ha         1 4BM       0.132000
     32 H11         -2.8900    -5.8320     1.0980 ha         1 4BM       0.145000
     33 HN15        -4.1820    -1.5730     1.3910 hn         1 4BM       0.347500
     34 H18         -4.7820     1.6620     1.7460 h1         1 4BM       0.060200
     35 H18A        -3.1660     1.0610     1.3330 h1         1 4BM       0.060200
     36 H19         -5.0150     2.5570    -0.5940 h1         1 4BM       0.053700
     37 H20         -4.2380     3.9980     1.3070 h1         1 4BM       0.019200
     38 H20A        -2.5590     3.6270     0.8990 h1         1 4BM       0.019200
     39 HO21        -3.1740     0.9890    -1.2530 ho         1 4BM       0.478000
     40 HO22        -3.1760     5.6030    -0.0490 ho         1 4BM       0.439000
@<TRIPOS>BOND
     1     1     2 ar  
     2     1     6 ar  
     3     1     7 1   
     4     2     3 ar  
     5     2    27 1   
     6     3     4 ar  
     7     3    28 1   
     8     4     5 ar  
     9     4    23 1   
    10     5     6 ar  
    11     5    29 1   
    12     6    24 1   
    13     7     8 1   
    14     7    30 1   
    15     8     9 ar  
    16     8    13 ar  
    17     9    10 ar  
    18     9    14 1   
    19    10    11 ar  
    20    10    31 1   
    21    11    12 ar  
    22    11    32 1   
    23    12    13 ar  
    24    12    26 1   
    25    13    25 1   
    26    14    15 1   
    27    14    16 2   
    28    15    17 1   
    29    15    33 1   
    30    17    18 1   
    31    18    19 1   
    32    18    34 1   
    33    18    35 1   
    34    19    20 1   
    35    19    21 1   
    36    19    36 1   
    37    20    22 1   
    38    20    37 1   
    39    20    38 1   
    40    21    39 1   
    41    22    40 1   
@<TRIPOS>SUBSTRUCTURE
     1 4BM         1 TEMP              0 ****  ****    0 ROOT
