@<TRIPOS>MOLECULE
4BM
   40    41     1     0     0
SMALL
bcc


@<TRIPOS>ATOM
      1 C01         -0.1250    -0.5150    -0.3420 ca         1 4BM       0.147600
      2 C02         -0.1040    -0.4190     1.0500 ca         1 4BM      -0.169000
      3 C03          0.0060     0.8050     1.6890 ca         1 4BM      -0.091000
      4 C04          0.1100     1.9640     0.9350 ca         1 4BM       0.036900
      5 C05          0.0830     1.9090    -0.4510 ca         1 4BM      -0.096000
      6 C06         -0.0440     0.6780    -1.0570 ca         1 4BM       0.098900
      7 N07         -0.1980    -1.7340    -0.9890 nu         1 4BM      -0.658000
      8 C08         -0.9630    -2.7890    -0.4980 ca         1 4BM       0.183600
      9 C09         -2.2840    -2.6270    -0.0560 ca         1 4BM      -0.181600
     10 C10         -2.9780    -3.6980     0.4880 ca         1 4BM      -0.076000
     11 C11         -2.4000    -4.9570     0.5650 ca         1 4BM      -0.166000
     12 C12         -1.1150    -5.1220     0.1000 ca         1 4BM       0.136900
     13 C13         -0.3970    -4.0520    -0.4080 ca         1 4BM       0.070900
     14 C14         -2.9870    -1.3370    -0.3180 c          1 4BM       0.691700
     15 N15         -3.5440    -0.7790     0.7600 ns         1 4BM      -0.440400
     16 O16         -3.0480    -0.8580    -1.4420 o          1 4BM      -0.573100
     17 O17         -4.3530     0.2940     0.6150 os         1 4BM      -0.198900
     18 C18         -3.6830     1.5630     0.7600 c3         1 4BM       0.049400
     19 C19         -3.9160     2.4010    -0.4860 c3         1 4BM       0.145100
     20 C20         -3.5020     3.8340    -0.2090 c3         1 4BM       0.141400
     21 O21         -3.2000     1.9420    -1.6020 oh         1 4BM      -0.598800
     22 O22         -3.8030     4.6190    -1.3370 oh         1 4BM      -0.574800
     23 I23          0.3010     3.8230     1.8940 i          1 4BM      -0.165900
     24 F24         -0.0750     0.6150    -2.3960 f          1 4BM      -0.128900
     25 F25          0.8600    -4.2420    -0.8070 f          1 4BM      -0.111900
     26 F26         -0.5240    -6.3160     0.1530 f          1 4BM      -0.114900
     27 H02         -0.1590    -1.3190     1.6500 ha         1 4BM       0.142000
     28 H03          0.0240     0.8340     2.7700 ha         1 4BM       0.147000
     29 H05          0.1400     2.7960    -1.0670 ha         1 4BM       0.171000
     30 HN07         0.0960    -1.7820    -1.9520 hn         1 4BM       0.470800
     31 H10         -4.0010    -3.5720     0.8170 ha         1 4BM       0.150000
     32 H11         -2.9470    -5.8010     0.9630 ha         1 4BM       0.163000
     33 HN15        -3.4770    -1.1670     1.6930 hn         1 4BM       0.347500
     34 H18         -4.1070     2.0570     1.6370 h1         1 4BM       0.060200
     35 H18A        -2.6150     1.4080     0.9370 h1         1 4BM       0.060200
     36 H19         -5.0020     2.3980    -0.6830 h1         1 4BM       0.053700
     37 H20         -4.0380     4.1860     0.6820 h1         1 4BM       0.019200
     38 H20A        -2.4300     3.8600     0.0290 h1         1 4BM       0.019200
     39 HO21        -3.2430     0.9720    -1.6350 ho         1 4BM       0.439000
     40 HO22        -3.5380     5.5230    -1.1480 ho         1 4BM       0.400000
@<TRIPOS>BOND
     1     1     2 ar  
     2     1     6 ar  
     3     1     7 1   
     4     2     3 ar  
     5     2    27 1   
     6     3     4 ar  
     7     3    28 1   
     8     4     5 ar  
     9     4    23 1   
    10     5     6 ar  
    11     5    29 1   
    12     6    24 1   
    13     7     8 1   
    14     7    30 1   
    15     8     9 ar  
    16     8    13 ar  
    17     9    10 ar  
    18     9    14 1   
    19    10    11 ar  
    20    10    31 1   
    21    11    12 ar  
    22    11    32 1   
    23    12    13 ar  
    24    12    26 1   
    25    13    25 1   
    26    14    15 1   
    27    14    16 2   
    28    15    17 1   
    29    15    33 1   
    30    17    18 1   
    31    18    19 1   
    32    18    34 1   
    33    18    35 1   
    34    19    20 1   
    35    19    21 1   
    36    19    36 1   
    37    20    22 1   
    38    20    37 1   
    39    20    38 1   
    40    21    39 1   
    41    22    40 1   
@<TRIPOS>SUBSTRUCTURE
     1 4BM         1 TEMP              0 ****  ****    0 ROOT
