@<TRIPOS>MOLECULE
4BO
   40    41     1     0     0
SMALL
No Charge or Current Charge


@<TRIPOS>ATOM
      1 C12          0.2710     1.0830     0.5510 ca         1 4BO      -0.125000
      2 C13         -1.1330     1.0730     0.6250 ca         1 4BO      -0.144500
      3 C24         -6.2870     0.3460    -1.0730 ca         1 4BO      -0.086000
      4 C11          0.9530     0.0900    -0.1880 ca         1 4BO      -0.025000
      5 C14         -1.8770     0.0790    -0.0280 ca         1 4BO       0.089100
      6 C15         -1.2030    -0.9180    -0.7640 ca         1 4BO      -0.144500
      7 O1           6.4190    -2.2190     0.6680 o          1 4BO      -0.731000
      8 C4           5.6260    -0.0220     1.0330 c3         1 4BO      -0.253400
      9 C7           3.3840     0.8870     0.1080 c          1 4BO       0.607100
     10 C5           4.8360     0.3780    -0.2390 c3         1 4BO       0.110500
     11 C20         -6.1700    -1.0440     0.9210 ca         1 4BO      -0.086000
     12 C21         -7.5090    -0.7300     1.2170 ca         1 4BO      -0.118000
     13 C22         -8.2360     0.1210     0.3680 ca         1 4BO      -0.107000
     14 C23         -7.6250     0.6590    -0.7770 ca         1 4BO      -0.118000
     15 C19         -5.5520    -0.5090    -0.2270 ca         1 4BO      -0.086300
     16 C18         -4.1030    -0.8500    -0.5490 c3         1 4BO       0.211900
     17 O17         -3.2520     0.1230     0.0820 os         1 4BO      -0.347100
     18 C16          0.2020    -0.9080    -0.8370 ca         1 4BO      -0.125000
     19 N9           2.3690     0.0300    -0.3060 ns         1 4BO      -0.148000
     20 O8           3.1900     1.9640     0.6710 o          1 4BO      -0.607100
     21 N6           5.6710     1.3190    -1.0540 n8         1 4BO      -0.998200
     22 O3           7.8230    -0.6100     0.3800 o          1 4BO      -0.731000
     23 H12          0.8070     1.8650     1.0790 ha         1 4BO       0.131500
     24 H13         -1.6490     1.8420     1.1960 ha         1 4BO       0.113000
     25 H24         -5.8190     0.7680    -1.9610 ha         1 4BO       0.116500
     26 H15         -1.7450    -1.7050    -1.2810 ha         1 4BO       0.113000
     27 H4           4.8940    -0.4990     1.6960 hc         1 4BO       0.034200
     28 H4A          6.0550     0.8960     1.4530 hc         1 4BO       0.034200
     29 H5           4.7000    -0.5350    -0.8380 h1         1 4BO       0.073700
     30 H20         -5.6130    -1.7020     1.5840 ha         1 4BO       0.116500
     31 H21         -7.9810    -1.1460     2.1050 ha         1 4BO       0.110000
     32 H22         -9.2720     0.3640     0.5980 ha         1 4BO       0.107000
     33 H23         -8.1870     1.3190    -1.4340 ha         1 4BO       0.110000
     34 H18         -3.8750    -1.8590    -0.1820 h1         1 4BO       0.037700
     35 H18A        -3.9590    -0.8410    -1.6370 h1         1 4BO       0.037700
     36 H16          0.7090    -1.6840    -1.4080 ha         1 4BO       0.131500
     37 HN9          2.7010    -0.8000    -0.7790 hn         1 4BO       0.155000
     38 HN6          5.7390     2.2140    -0.5520 hn         1 4BO       0.412000
     39 HN6A         6.6410     0.9760    -1.0470 hn         1 4BO       0.412000
     40 C2           6.7200    -1.0360     0.6840 c          1 4BO       0.715000
@<TRIPOS>BOND
     1     1     2 ar  
     2     1     4 ar  
     3     1    23 1   
     4     2     5 ar  
     5     2    24 1   
     6     3    14 ar  
     7     3    15 ar  
     8     3    25 1   
     9     4    18 ar  
    10     4    19 1   
    11     5     6 ar  
    12     5    17 1   
    13     6    18 ar  
    14     6    26 1   
    15     7    40 1   
    16     8    10 1   
    17     8    27 1   
    18     8    28 1   
    19     8    40 1   
    20     9    10 1   
    21     9    19 1   
    22     9    20 2   
    23    10    21 1   
    24    10    29 1   
    25    11    12 ar  
    26    11    15 ar  
    27    11    30 1   
    28    12    13 ar  
    29    12    31 1   
    30    13    14 ar  
    31    13    32 1   
    32    14    33 1   
    33    15    16 1   
    34    16    17 1   
    35    16    34 1   
    36    16    35 1   
    37    18    36 1   
    38    19    37 1   
    39    21    38 1   
    40    21    39 1   
    41    22    40 1   
@<TRIPOS>SUBSTRUCTURE
     1 4BO         1 TEMP              0 ****  ****    0 ROOT
