@<TRIPOS>MOLECULE
4BO
   40    41     1     0     0
SMALL
abcg2


@<TRIPOS>ATOM
      1 C12          0.2960     1.2680     0.2240 ca         1 4BO      -0.125000
      2 C13         -1.0850     1.2530     0.3140 ca         1 4BO      -0.144500
      3 C24         -6.3260    -0.1620    -1.1240 ca         1 4BO      -0.086000
      4 C11          0.9710     0.2110    -0.3930 ca         1 4BO      -0.025000
      5 C14         -1.8360     0.2000    -0.2040 ca         1 4BO       0.089100
      6 C15         -1.1690    -0.8510    -0.8260 ca         1 4BO      -0.144500
      7 O1           7.0450    -1.1340    -0.4000 o          1 4BO      -0.731000
      8 C4           5.1300    -0.4630     0.8660 c3         1 4BO      -0.253400
      9 C7           3.3300     0.9540    -0.0710 c          1 4BO       0.607100
     10 C5           4.7440     0.4450    -0.3080 c3         1 4BO       0.110500
     11 C20         -5.7970    -0.5850     1.1780 ca         1 4BO      -0.086000
     12 C21         -7.1110    -0.3160     1.5310 ca         1 4BO      -0.118000
     13 C22         -8.0380     0.0290     0.5540 ca         1 4BO      -0.107000
     14 C23         -7.6450     0.1050    -0.7740 ca         1 4BO      -0.118000
     15 C19         -5.3940    -0.5120    -0.1540 ca         1 4BO      -0.086300
     16 C18         -3.9700    -0.8000    -0.5230 c3         1 4BO       0.211900
     17 O17         -3.1770     0.2830    -0.0610 os         1 4BO      -0.347100
     18 C16          0.2150    -0.8370    -0.9120 ca         1 4BO      -0.125000
     19 N9           2.3620     0.1260    -0.5330 ns         1 4BO      -0.148000
     20 O8           3.1100     1.9950     0.5270 o          1 4BO      -0.607100
     21 N6           5.6220     1.5810    -0.5180 n8         1 4BO      -0.998200
     22 O3           6.9540    -1.6790     1.7580 o          1 4BO      -0.731000
     23 H12          0.8340     2.1040     0.6380 ha         1 4BO       0.131500
     24 H13         -1.5930     2.0790     0.7970 ha         1 4BO       0.113000
     25 H24         -6.0220    -0.1010    -2.1630 ha         1 4BO       0.116500
     26 H15         -1.6990    -1.6920    -1.2520 ha         1 4BO       0.113000
     27 H4           4.3820    -1.2550     0.9880 hc         1 4BO       0.034200
     28 H4A          5.1060     0.1150     1.7960 hc         1 4BO       0.034200
     29 H5           4.7570    -0.1550    -1.2220 h1         1 4BO       0.073700
     30 H20         -5.0810    -0.8610     1.9430 ha         1 4BO       0.116500
     31 H21         -7.4140    -0.3790     2.5690 ha         1 4BO       0.110000
     32 H22         -9.0650     0.2350     0.8290 ha         1 4BO       0.107000
     33 H23         -8.3620     0.3720    -1.5400 ha         1 4BO       0.110000
     34 H18         -3.6400    -1.7360    -0.0590 h1         1 4BO       0.037700
     35 H18A        -3.8720    -0.9150    -1.6080 h1         1 4BO       0.037700
     36 H16          0.7120    -1.6700    -1.3960 ha         1 4BO       0.131500
     37 HN9          2.6840    -0.6950    -1.0240 hn         1 4BO       0.155000
     38 HN6          5.6400     2.1480     0.3220 hn         1 4BO       0.412000
     39 HN6A         6.5590     1.2180    -0.6350 hn         1 4BO       0.412000
     40 C2           6.5060    -1.1450     0.7250 c          1 4BO       0.715000
@<TRIPOS>BOND
     1     1     2 ar  
     2     1     4 ar  
     3     1    23 1   
     4     2     5 ar  
     5     2    24 1   
     6     3    14 ar  
     7     3    15 ar  
     8     3    25 1   
     9     4    18 ar  
    10     4    19 1   
    11     5     6 ar  
    12     5    17 1   
    13     6    18 ar  
    14     6    26 1   
    15     7    40 1   
    16     8    10 1   
    17     8    27 1   
    18     8    28 1   
    19     8    40 1   
    20     9    10 1   
    21     9    19 1   
    22     9    20 2   
    23    10    21 1   
    24    10    29 1   
    25    11    12 ar  
    26    11    15 ar  
    27    11    30 1   
    28    12    13 ar  
    29    12    31 1   
    30    13    14 ar  
    31    13    32 1   
    32    14    33 1   
    33    15    16 1   
    34    16    17 1   
    35    16    34 1   
    36    16    35 1   
    37    18    36 1   
    38    19    37 1   
    39    21    38 1   
    40    21    39 1   
    41    22    40 1   
@<TRIPOS>SUBSTRUCTURE
     1 4BO         1 TEMP              0 ****  ****    0 ROOT
