@<TRIPOS>MOLECULE
4BP
   28    29     1     0     0
SMALL
No Charge or Current Charge


@<TRIPOS>ATOM
      1 C12          4.9620     0.0120     1.2430 c3         1 4BP       0.146900
      2 C11          3.4840     0.0050     0.8760 ca         1 4BP      -0.090300
      3 C10          2.8880    -1.1560     0.3510 ca         1 4BP      -0.092000
      4 C09          1.5240    -1.1610     0.0100 ca         1 4BP      -0.098000
      5 C13          2.7020     1.1610     1.0520 ca         1 4BP      -0.092000
      6 C14          1.3390     1.1550     0.7100 ca         1 4BP      -0.098000
      7 C08          0.7200    -0.0060     0.1820 cp         1 4BP      -0.027000
      8 C05         -0.7330    -0.0120    -0.1830 cp         1 4BP      -0.027000
      9 C04         -1.5290    -1.1710    -0.0060 ca         1 4BP      -0.098000
     10 C03         -2.8920    -1.1780    -0.3470 ca         1 4BP      -0.092000
     11 C06         -1.3610     1.1420    -0.7160 ca         1 4BP      -0.098000
     12 C07         -2.7240     1.1370    -1.0590 ca         1 4BP      -0.092000
     13 C02         -3.4970    -0.0240    -0.8770 ca         1 4BP      -0.090300
     14 C01         -4.9750    -0.0290    -1.2440 c3         1 4BP       0.146900
     15 H1           5.1640     0.7190     2.0580 h1         1 4BP       0.077700
     16 H2           5.3010    -0.9890     1.5400 h1         1 4BP       0.077700
     17 H4           3.4810    -2.0550     0.2020 ha         1 4BP       0.117250
     18 H5           1.0920    -2.0670    -0.4060 ha         1 4BP       0.117500
     19 H6           3.1500     2.0670     1.4570 ha         1 4BP       0.117250
     20 H7           0.7550     2.0580     0.8690 ha         1 4BP       0.117500
     21 H8          -1.0900    -2.0730     0.4140 ha         1 4BP       0.117500
     22 H9          -3.4800    -2.0810    -0.1940 ha         1 4BP       0.117250
     23 H10         -0.7830     2.0480    -0.8790 ha         1 4BP       0.117500
     24 H11         -3.1780     2.0380    -1.4670 ha         1 4BP       0.117250
     25 H12         -5.1820     0.6730    -2.0620 h1         1 4BP       0.077700
     26 H13         -5.3060    -1.0330    -1.5370 h1         1 4BP       0.077700
     27 Br1         -6.1010     0.5300     0.3020 br         1 4BP      -0.276000
     28 Br2          6.0840     0.5720    -0.3060 br         1 4BP      -0.276000
@<TRIPOS>BOND
     1     1     2 1   
     2     1    15 1   
     3     1    16 1   
     4     1    28 1   
     5     2     3 ar  
     6     2     5 ar  
     7     3     4 ar  
     8     3    17 1   
     9     4     7 ar  
    10     4    18 1   
    11     5     6 ar  
    12     5    19 1   
    13     6     7 ar  
    14     6    20 1   
    15     7     8 1   
    16     8     9 ar  
    17     8    11 ar  
    18     9    10 ar  
    19     9    21 1   
    20    10    13 ar  
    21    10    22 1   
    22    11    12 ar  
    23    11    23 1   
    24    12    13 ar  
    25    12    24 1   
    26    13    14 1   
    27    14    25 1   
    28    14    26 1   
    29    14    27 1   
@<TRIPOS>SUBSTRUCTURE
     1 4BP         1 TEMP              0 ****  ****    0 ROOT
