@<TRIPOS>MOLECULE
4BP
   28    29     1     0     0
SMALL
bcc


@<TRIPOS>ATOM
      1 C12          4.8770     0.0110     1.2330 c3         1 4BP       0.064300
      2 C11          3.4360     0.0050     0.8670 ca         1 4BP      -0.090300
      3 C10          2.8410    -1.1400     0.3450 ca         1 4BP      -0.110000
      4 C09          1.4980    -1.1470     0.0070 ca         1 4BP      -0.116000
      5 C13          2.6540     1.1450     1.0400 ca         1 4BP      -0.110000
      6 C14          1.3110     1.1370     0.7040 ca         1 4BP      -0.116000
      7 C08          0.7090    -0.0090     0.1790 cp         1 4BP      -0.027000
      8 C05         -0.7220    -0.0140    -0.1790 cp         1 4BP      -0.027000
      9 C04         -1.5040    -1.1570    -0.0000 ca         1 4BP      -0.116000
     10 C03         -2.8460    -1.1610    -0.3390 ca         1 4BP      -0.110000
     11 C06         -1.3320     1.1250    -0.7090 ca         1 4BP      -0.116000
     12 C07         -2.6740     1.1210    -1.0470 ca         1 4BP      -0.110000
     13 C02         -3.4490    -0.0220    -0.8680 ca         1 4BP      -0.090300
     14 C01         -4.8890    -0.0280    -1.2370 c3         1 4BP       0.064300
     15 H1           5.1020     0.7220     2.0260 h1         1 4BP       0.077700
     16 H2           5.2400    -0.9750     1.5140 h1         1 4BP       0.077700
     17 H4           3.4330    -2.0340     0.1960 ha         1 4BP       0.135250
     18 H5           1.0680    -2.0480    -0.4130 ha         1 4BP       0.135500
     19 H6           3.0950     2.0440     1.4520 ha         1 4BP       0.135250
     20 H7           0.7210     2.0290     0.8730 ha         1 4BP       0.135500
     21 H8          -1.0680    -2.0520     0.4260 ha         1 4BP       0.135500
     22 H9          -3.4330    -2.0580    -0.1850 ha         1 4BP       0.135250
     23 H10         -0.7480     2.0200    -0.8830 ha         1 4BP       0.135500
     24 H11         -3.1220     2.0150    -1.4640 ha         1 4BP       0.135250
     25 H12         -5.1180     0.6810    -2.0300 h1         1 4BP       0.077700
     26 H13         -5.2430    -1.0170    -1.5200 h1         1 4BP       0.077700
     27 BR1         -6.0050     0.5200     0.3140 br         1 4BP      -0.193400
     28 BR2          5.9850     0.5710    -0.3190 br         1 4BP      -0.193400
@<TRIPOS>BOND
     1     1     2 1   
     2     1    15 1   
     3     1    16 1   
     4     1    28 1   
     5     2     3 ar  
     6     2     5 ar  
     7     3     4 ar  
     8     3    17 1   
     9     4     7 ar  
    10     4    18 1   
    11     5     6 ar  
    12     5    19 1   
    13     6     7 ar  
    14     6    20 1   
    15     7     8 1   
    16     8     9 ar  
    17     8    11 ar  
    18     9    10 ar  
    19     9    21 1   
    20    10    13 ar  
    21    10    22 1   
    22    11    12 ar  
    23    11    23 1   
    24    12    13 ar  
    25    12    24 1   
    26    13    14 1   
    27    14    25 1   
    28    14    26 1   
    29    14    27 1   
@<TRIPOS>SUBSTRUCTURE
     1 4BP         1 TEMP              0 ****  ****    0 ROOT
