@<TRIPOS>MOLECULE
4BQ
   43    44     1     0     0
SMALL
bcc


@<TRIPOS>ATOM
      1 C21         -6.8590     0.2940     0.9400 ca         1 4BQ      -0.102500
      2 C22         -8.1020    -0.3220     0.9840 ca         1 4BQ      -0.135500
      3 C23         -8.5680    -1.0240    -0.1200 ca         1 4BQ      -0.122000
      4 C24         -7.7890    -1.1040    -1.2680 ca         1 4BQ      -0.135500
      5 C25         -6.5480    -0.4840    -1.3080 ca         1 4BQ      -0.102500
      6 C20         -6.0730     0.2200    -0.2050 ca         1 4BQ      -0.089300
      7 C19         -4.7130     0.8490    -0.2370 c3         1 4BQ       0.188700
      8 O18         -3.7810    -0.1450     0.1630 os         1 4BQ      -0.321900
      9 C15         -2.4690     0.1750     0.1880 ca         1 4BQ       0.104100
     10 C16         -1.5890    -0.8460     0.5500 ca         1 4BQ      -0.170000
     11 C17         -0.2260    -0.6260     0.6090 ca         1 4BQ      -0.125000
     12 C14         -1.9520     1.4310    -0.1100 ca         1 4BQ      -0.170000
     13 C13         -0.5810     1.6440    -0.0620 ca         1 4BQ      -0.125000
     14 C12          0.3000     0.6290     0.2930 ca         1 4BQ       0.050600
     15 N10          1.6720     0.9220     0.3570 ns         1 4BQ      -0.491100
     16 C8           2.6990     0.0970     0.0210 c          1 4BQ       0.668100
     17 O9           2.5380    -1.0690    -0.2950 o          1 4BQ      -0.584100
     18 C7           4.0540     0.7660     0.0580 c3         1 4BQ      -0.153400
     19 C6           5.2180    -0.2120     0.0860 c3         1 4BQ      -0.042400
     20 C4           6.5770     0.4930     0.0540 c3         1 4BQ       0.010500
     21 C2           7.6980    -0.5590     0.2450 c          1 4BQ       0.904600
     22 O3           8.4440    -0.7910    -0.7270 o          1 4BQ      -0.836800
     23 O1           7.7480    -1.1070     1.3670 o          1 4BQ      -0.836800
     24 N5           6.6840     1.3090    -1.1450 n8         1 4BQ      -0.898800
     25 H21         -6.4980     0.8410     1.8040 ha         1 4BQ       0.133500
     26 H22         -8.7070    -0.2560     1.8790 ha         1 4BQ       0.128500
     27 H23         -9.5370    -1.5060    -0.0870 ha         1 4BQ       0.126000
     28 H24         -8.1500    -1.6470    -2.1320 ha         1 4BQ       0.128500
     29 H25         -5.9450    -0.5440    -2.2070 ha         1 4BQ       0.133500
     30 H19         -4.4780     1.2070    -1.2450 h1         1 4BQ       0.037200
     31 H19A        -4.6710     1.7080     0.4410 h1         1 4BQ       0.037200
     32 H16         -1.9840    -1.8230     0.7980 ha         1 4BQ       0.133500
     33 H17          0.4180    -1.4370     0.9130 ha         1 4BQ       0.144500
     34 H14         -2.5900     2.2590    -0.3900 ha         1 4BQ       0.133500
     35 H13         -0.1960     2.6260    -0.3110 ha         1 4BQ       0.144500
     36 HN10         1.9050     1.8890     0.5190 hn         1 4BQ       0.312500
     37 H7           4.1390     1.4120    -0.8210 hc         1 4BQ       0.058200
     38 H7A          4.1060     1.4360     0.9220 hc         1 4BQ       0.058200
     39 H6           5.1630    -0.8310     0.9830 hc         1 4BQ       0.056700
     40 H6A          5.1480    -0.8930    -0.7680 hc         1 4BQ       0.056700
     41 H4           6.6180     1.1710     0.9160 h1         1 4BQ       0.033700
     42 HN5          7.5430     1.8440    -1.0990 hn         1 4BQ       0.329300
     43 HN5A         6.8190     0.6880    -1.9350 hn         1 4BQ       0.329300
@<TRIPOS>BOND
     1     1     2 ar  
     2     1     6 ar  
     3     1    25 1   
     4     2     3 ar  
     5     2    26 1   
     6     3     4 ar  
     7     3    27 1   
     8     4     5 ar  
     9     4    28 1   
    10     5     6 ar  
    11     5    29 1   
    12     6     7 1   
    13     7     8 1   
    14     7    30 1   
    15     7    31 1   
    16     8     9 1   
    17     9    10 ar  
    18     9    12 ar  
    19    10    11 ar  
    20    10    32 1   
    21    11    14 ar  
    22    11    33 1   
    23    12    13 ar  
    24    12    34 1   
    25    13    14 ar  
    26    13    35 1   
    27    14    15 1   
    28    15    16 1   
    29    15    36 1   
    30    16    17 2   
    31    16    18 1   
    32    18    19 1   
    33    18    37 1   
    34    18    38 1   
    35    19    20 1   
    36    19    39 1   
    37    19    40 1   
    38    20    21 1   
    39    20    24 1   
    40    20    41 1   
    41    21    22 1   
    42    21    23 1   
    43    24    42 1   
    44    24    43 1   
@<TRIPOS>SUBSTRUCTURE
     1 4BQ         1 TEMP              0 ****  ****    0 ROOT
