@<TRIPOS>MOLECULE
4BQ
   43    44     1     0     0
SMALL
No Charge or Current Charge


@<TRIPOS>ATOM
      1 C21         -6.6120    -0.3870     1.4000 ca         1 4BQ      -0.084500
      2 C22         -7.9060    -0.9380     1.4040 ca         1 4BQ      -0.117500
      3 C23         -8.6950    -0.8890     0.2420 ca         1 4BQ      -0.104000
      4 C24         -8.1890    -0.2900    -0.9240 ca         1 4BQ      -0.117500
      5 C25         -6.8960     0.2610    -0.9280 ca         1 4BQ      -0.084500
      6 C20         -6.1000     0.2170     0.2340 ca         1 4BQ      -0.089300
      7 C19         -4.7000     0.8150     0.2300 c3         1 4BQ       0.211900
      8 O18         -3.7670    -0.2040    -0.1700 os         1 4BQ      -0.345100
      9 C15         -2.4130     0.0370    -0.2690 ca         1 4BQ       0.104100
     10 C16         -1.5840    -1.0230    -0.6670 ca         1 4BQ      -0.152000
     11 C17         -0.1950    -0.8410    -0.7880 ca         1 4BQ      -0.107000
     12 C14         -1.8390     1.2940     0.0140 ca         1 4BQ      -0.152000
     13 C13         -0.4490     1.4760    -0.1060 ca         1 4BQ      -0.107000
     14 C12          0.3850     0.4160    -0.5100 ca         1 4BQ      -0.042000
     15 N10          1.7810     0.6780    -0.6050 ns         1 4BQ      -0.165000
     16 C8           2.8530    -0.0930    -1.0410 c          1 4BQ       0.601100
     17 O9           2.7510    -1.2280    -1.4910 o          1 4BQ      -0.584100
     18 C7           4.2110     0.6160    -0.9570 c3         1 4BQ      -0.153400
     19 C6           5.0840     0.0380     0.1890 c3         1 4BQ      -0.042400
     20 C4           6.4380     0.7710     0.3960 c3         1 4BQ       0.010500
     21 C2           7.0990     0.3210     1.7660 c          1 4BQ       0.694000
     22 O3           7.6420    -0.7750     1.8180 o          1 4BQ      -0.731500
     23 O1           7.1370     1.1290     2.6840 o          1 4BQ      -0.731500
     24 N5           7.3080     0.6530    -0.8310 n8         1 4BQ      -1.009200
     25 H21         -6.0060    -0.4310     2.3030 ha         1 4BQ       0.115500
     26 H22         -8.2950    -1.4030     2.3070 ha         1 4BQ       0.110500
     27 H23         -9.6960    -1.3160     0.2460 ha         1 4BQ       0.108000
     28 H24         -8.7990    -0.2530    -1.8240 ha         1 4BQ       0.110500
     29 H25         -6.5110     0.7220    -1.8360 ha         1 4BQ       0.115500
     30 H19         -4.6670     1.6630    -0.4660 h1         1 4BQ       0.037200
     31 H19A        -4.4580     1.1870     1.2340 h1         1 4BQ       0.037200
     32 H16         -2.0220    -1.9950    -0.8830 ha         1 4BQ       0.115500
     33 H17          0.4090    -1.6900    -1.0920 ha         1 4BQ       0.126500
     34 H14         -2.4490     2.1370     0.3260 ha         1 4BQ       0.115500
     35 H13         -0.0200     2.4510     0.1150 ha         1 4BQ       0.126500
     36 HN10         2.0430     1.6030    -0.2890 hn         1 4BQ       0.146000
     37 H7           4.7360     0.4710    -1.9080 hc         1 4BQ       0.058200
     38 H7A          4.0640     1.6870    -0.7750 hc         1 4BQ       0.058200
     39 H6           4.5120     0.1000     1.1240 hc         1 4BQ       0.056700
     40 H6A          5.2690    -1.0290     0.0100 hc         1 4BQ       0.056700
     41 H4           6.2080     1.8400     0.5090 h1         1 4BQ       0.033700
     42 HN5          8.1660     1.1990    -0.6870 hn         1 4BQ       0.384500
     43 HN5A         7.6570    -0.3130    -0.8870 hn         1 4BQ       0.384500
@<TRIPOS>BOND
     1     1     2 ar  
     2     1     6 ar  
     3     1    25 1   
     4     2     3 ar  
     5     2    26 1   
     6     3     4 ar  
     7     3    27 1   
     8     4     5 ar  
     9     4    28 1   
    10     5     6 ar  
    11     5    29 1   
    12     6     7 1   
    13     7     8 1   
    14     7    30 1   
    15     7    31 1   
    16     8     9 1   
    17     9    10 ar  
    18     9    12 ar  
    19    10    11 ar  
    20    10    32 1   
    21    11    14 ar  
    22    11    33 1   
    23    12    13 ar  
    24    12    34 1   
    25    13    14 ar  
    26    13    35 1   
    27    14    15 1   
    28    15    16 1   
    29    15    36 1   
    30    16    17 2   
    31    16    18 1   
    32    18    19 1   
    33    18    37 1   
    34    18    38 1   
    35    19    20 1   
    36    19    39 1   
    37    19    40 1   
    38    20    21 1   
    39    20    24 1   
    40    20    41 1   
    41    21    22 1   
    42    21    23 1   
    43    24    42 1   
    44    24    43 1   
@<TRIPOS>SUBSTRUCTURE
     1 4BQ         1 TEMP              0 ****  ****    0 ROOT
