@<TRIPOS>MOLECULE
4BR
   25    25     1     0     0
SMALL
No Charge or Current Charge


@<TRIPOS>ATOM
      1 CA1          0.7320    -0.4770     1.7890 ca         1 4BR      -0.177000
      2 CB1          0.8990    -0.2650     0.4100 ca         1 4BR      -0.077000
      3 CG1          1.9500    -0.8970    -0.2800 ca         1 4BR      -0.144300
      4 CD           2.8330    -1.7390     0.4220 ca         1 4BR      -0.077000
      5 CG2          2.6660    -1.9510     1.8020 ca         1 4BR      -0.177000
      6 CB2          1.6100    -1.3180     2.4920 ca         1 4BR       0.177100
      7 O            1.3950    -1.4870     3.8450 os         1 4BR      -0.334100
      8 CZ2          2.2310    -2.3290     4.6500 c3         1 4BR       0.200600
      9 CA2          1.6980    -2.2660     6.0830 c3         1 4BR      -0.440400
     10 P            0.0520    -3.0410     6.2290 p5         1 4BR       1.257400
     11 OP1          0.1530    -4.5190     6.0120 o          1 4BR      -0.829000
     12 OP2         -0.5680    -2.6830     7.5440 o          1 4BR      -0.829000
     13 CH2          2.1350    -0.6660    -1.7730 c3         1 4BR      -0.028800
     14 HA1         -0.0810     0.0130     2.3180 ha         1 4BR       0.123500
     15 HB1          0.2120     0.3910    -0.1210 ha         1 4BR       0.096500
     16 HD           3.6510    -2.2300    -0.1020 ha         1 4BR       0.096500
     17 HG2          3.3630    -2.6060     2.3160 ha         1 4BR       0.123500
     18 HZ21         2.2160    -3.3650     4.2860 h1         1 4BR       0.023200
     19 HZ22         3.2670    -1.9670     4.6330 h1         1 4BR       0.023200
     20 HA21         2.3720    -2.8010     6.7600 hc         1 4BR       0.057200
     21 HA22         1.6240    -1.2280     6.4220 hc         1 4BR       0.057200
     22 HH21         2.5780    -1.5430    -2.2610 hc         1 4BR       0.027700
     23 HH22         1.1780    -0.4640    -2.2680 hc         1 4BR       0.027700
     24 HH23         2.7950     0.1890    -1.9560 hc         1 4BR       0.027700
     25 HP1         -0.6290    -2.4080     5.1560 hp         1 4BR      -0.206400
@<TRIPOS>BOND
     1     1     2 ar  
     2     1     6 ar  
     3     1    14 1   
     4     2     3 ar  
     5     2    15 1   
     6     3     4 ar  
     7     3    13 1   
     8     4     5 ar  
     9     4    16 1   
    10     5     6 ar  
    11     5    17 1   
    12     6     7 1   
    13     7     8 1   
    14     8     9 1   
    15     8    18 1   
    16     8    19 1   
    17     9    10 1   
    18     9    20 1   
    19     9    21 1   
    20    10    11 1   
    21    10    12 1   
    22    10    25 1   
    23    13    22 1   
    24    13    23 1   
    25    13    24 1   
@<TRIPOS>SUBSTRUCTURE
     1 4BR         1 TEMP              0 ****  ****    0 ROOT
