@<TRIPOS>MOLECULE
4BR
   25    25     1     0     0
SMALL
bcc


@<TRIPOS>ATOM
      1 CA1          0.7050    -0.5540     1.7750 ca         1 4BR      -0.195000
      2 CB1          0.8840    -0.3650     0.4160 ca         1 4BR      -0.095000
      3 CG1          1.9570    -0.9380    -0.2660 ca         1 4BR      -0.144300
      4 CD           2.8410    -1.7150     0.4730 ca         1 4BR      -0.095000
      5 CG2          2.6800    -1.9190     1.8390 ca         1 4BR      -0.195000
      6 CB2          1.6050    -1.3330     2.5030 ca         1 4BR       0.177100
      7 O            1.3570    -1.4620     3.8210 os         1 4BR      -0.310900
      8 CZ2          2.2200    -2.2720     4.6050 c3         1 4BR       0.177400
      9 CA2          1.7020    -2.2760     6.0240 c3         1 4BR      -0.282600
     10 P            0.0200    -2.9950     6.2300 p5         1 4BR       1.099600
     11 OP1         -0.0830    -4.2460     5.3850 o          1 4BR      -0.829000
     12 OP2         -0.2810    -3.0610     7.7130 o          1 4BR      -0.829000
     13 CH2          2.1630    -0.7070    -1.7360 c3         1 4BR      -0.028800
     14 HA1         -0.1390    -0.1020     2.2830 ha         1 4BR       0.141500
     15 HB1          0.1670     0.2400    -0.1260 ha         1 4BR       0.114500
     16 HD           3.6850    -2.1820    -0.0230 ha         1 4BR       0.114500
     17 HG2          3.3990    -2.5350     2.3620 ha         1 4BR       0.141500
     18 HZ21         2.2440    -3.2930     4.2120 h1         1 4BR       0.023200
     19 HZ22         3.2430    -1.8780     4.5680 h1         1 4BR       0.023200
     20 HA21         2.3800    -2.8850     6.6290 hc         1 4BR       0.057200
     21 HA22         1.7280    -1.2690     6.4500 hc         1 4BR       0.057200
     22 HH21         2.5160    -1.6080    -2.2390 hc         1 4BR       0.027700
     23 HH22         1.2390    -0.3950    -2.2240 hc         1 4BR       0.027700
     24 HH23         2.9050     0.0730    -1.9180 hc         1 4BR       0.027700
     25 HP1         -0.8040    -1.9790     5.6500 hp         1 4BR      -0.206400
@<TRIPOS>BOND
     1     1     2 ar  
     2     1     6 ar  
     3     1    14 1   
     4     2     3 ar  
     5     2    15 1   
     6     3     4 ar  
     7     3    13 1   
     8     4     5 ar  
     9     4    16 1   
    10     5     6 ar  
    11     5    17 1   
    12     6     7 1   
    13     7     8 1   
    14     8     9 1   
    15     8    18 1   
    16     8    19 1   
    17     9    10 1   
    18     9    20 1   
    19     9    21 1   
    20    10    11 1   
    21    10    12 1   
    22    10    25 1   
    23    13    22 1   
    24    13    23 1   
    25    13    24 1   
@<TRIPOS>SUBSTRUCTURE
     1 4BR         1 TEMP              0 ****  ****    0 ROOT
