@<TRIPOS>MOLECULE
4BS
   41    42     1     0     0
SMALL
bcc


@<TRIPOS>ATOM
      1 N1          -8.8340    -0.8400     0.1400 n8         1 4BS      -0.881800
      2 C2          -7.7460     0.1260     0.1440 c3         1 4BS       0.148800
      3 C3          -6.4040    -0.5730    -0.0220 c3         1 4BS      -0.068400
      4 C4          -5.2560     0.4240    -0.0210 c3         1 4BS      -0.159400
      5 C5          -3.9000    -0.2090    -0.2530 c          1 4BS       0.673100
      6 O6          -3.7610    -1.2720    -0.8350 o          1 4BS      -0.580100
      7 N7          -2.8680     0.5330     0.2200 ns         1 4BS      -0.472100
      8 C9          -1.4880     0.3160     0.1110 ca         1 4BS       0.037600
      9 C10         -0.9010    -0.7940    -0.5020 ca         1 4BS      -0.131000
     10 C11          0.4760    -0.9100    -0.5600 ca         1 4BS      -0.163500
     11 C12          1.3110     0.0640    -0.0160 ca         1 4BS       0.117100
     12 C13          0.7330     1.1690     0.6010 ca         1 4BS      -0.163500
     13 C14         -0.6490     1.2840     0.6570 ca         1 4BS      -0.131000
     14 O15          2.6410    -0.1450    -0.1350 os         1 4BS      -0.317900
     15 C16          3.5270     0.7840     0.4710 c3         1 4BS       0.188700
     16 C17          4.9240     0.2970     0.2300 ca         1 4BS      -0.095300
     17 C18          5.7710     0.9720    -0.6420 ca         1 4BS      -0.103000
     18 C19          7.0620     0.5110    -0.8720 ca         1 4BS      -0.133000
     19 C20          7.5130    -0.6360    -0.2340 ca         1 4BS      -0.117000
     20 C21          6.6700    -1.3180     0.6370 ca         1 4BS      -0.133000
     21 C22          5.3850    -0.8530     0.8670 ca         1 4BS      -0.103000
     22 HN1         -8.7820    -1.4020     0.9820 hn         1 4BS       0.337300
     23 HN1A        -9.7180    -0.3520     0.1960 hn         1 4BS       0.337300
     24 H2          -7.8940     0.8130    -0.6930 h1         1 4BS       0.023200
     25 H2A         -7.7170     0.7500     1.0500 h1         1 4BS       0.023200
     26 H3          -6.2670    -1.2940     0.7890 hc         1 4BS       0.064700
     27 H3A         -6.4120    -1.1420    -0.9540 hc         1 4BS       0.064700
     28 H4          -5.4060     1.1620    -0.8170 hc         1 4BS       0.055700
     29 H4A         -5.2500     0.9920     0.9140 hc         1 4BS       0.055700
     30 HN7         -3.1220     1.3880     0.6900 hn         1 4BS       0.311500
     31 H10         -1.5050    -1.5740    -0.9360 ha         1 4BS       0.146000
     32 H11          0.9150    -1.7770    -1.0380 ha         1 4BS       0.141500
     33 H13          1.3290     1.9550     1.0420 ha         1 4BS       0.141500
     34 H14         -1.0750     2.1570     1.1370 ha         1 4BS       0.146000
     35 H16          3.3930     1.7840     0.0450 h1         1 4BS       0.038700
     36 H16A         3.3230     0.8520     1.5460 h1         1 4BS       0.038700
     37 H18          5.4230     1.8670    -1.1430 ha         1 4BS       0.133000
     38 H19          7.7120     1.0460    -1.5520 ha         1 4BS       0.132000
     39 H20          8.5180    -0.9960    -0.4110 ha         1 4BS       0.131000
     40 H21          7.0190    -2.2120     1.1390 ha         1 4BS       0.132000
     41 H22          4.7360    -1.3850     1.5530 ha         1 4BS       0.133000
@<TRIPOS>BOND
     1     1     2 1   
     2     1    22 1   
     3     1    23 1   
     4     2     3 1   
     5     2    24 1   
     6     2    25 1   
     7     3     4 1   
     8     3    26 1   
     9     3    27 1   
    10     4     5 1   
    11     4    28 1   
    12     4    29 1   
    13     5     6 2   
    14     5     7 1   
    15     7     8 1   
    16     7    30 1   
    17     8     9 ar  
    18     8    13 ar  
    19     9    10 ar  
    20     9    31 1   
    21    10    11 ar  
    22    10    32 1   
    23    11    12 ar  
    24    11    14 1   
    25    12    13 ar  
    26    12    33 1   
    27    13    34 1   
    28    14    15 1   
    29    15    16 1   
    30    15    35 1   
    31    15    36 1   
    32    16    17 ar  
    33    16    21 ar  
    34    17    18 ar  
    35    17    37 1   
    36    18    19 ar  
    37    18    38 1   
    38    19    20 ar  
    39    19    39 1   
    40    20    21 ar  
    41    20    40 1   
    42    21    41 1   
@<TRIPOS>SUBSTRUCTURE
     1 4BS         1 TEMP              0 ****  ****    0 ROOT
