@<TRIPOS>MOLECULE
4BS
   41    42     1     0     0
SMALL
No Charge or Current Charge


@<TRIPOS>ATOM
      1 N1          -8.4430    -1.0200     1.1440 n8         1 4BS      -0.992200
      2 C2          -7.6680     0.0190     0.4430 c3         1 4BS       0.148800
      3 C3          -6.2570    -0.4800     0.0710 c3         1 4BS      -0.068400
      4 C4          -5.4170     0.5880    -0.6720 c3         1 4BS      -0.159400
      5 C5          -4.0210     0.0610    -1.0360 c          1 4BS       0.606100
      6 O6          -3.8630    -0.7440    -1.9470 o          1 4BS      -0.580100
      7 N7          -2.9910     0.6020    -0.2760 ns         1 4BS      -0.146000
      8 C9          -1.5830     0.3950    -0.2790 ca         1 4BS      -0.055000
      9 C10         -0.9350    -0.5610    -1.0920 ca         1 4BS      -0.113000
     10 C11          0.4620    -0.7100    -1.0370 ca         1 4BS      -0.145500
     11 C12          1.2320     0.0850    -0.1740 ca         1 4BS       0.117100
     12 C13          0.5910     1.0390     0.6440 ca         1 4BS      -0.145500
     13 C14         -0.8060     1.1870     0.5880 ca         1 4BS      -0.113000
     14 O15          2.5990    -0.1090    -0.1650 os         1 4BS      -0.341100
     15 C16          3.4750     0.6540     0.6830 c3         1 4BS       0.211900
     16 C17          4.9050     0.1900     0.4430 ca         1 4BS      -0.095300
     17 C18          5.6970     0.8070    -0.5460 ca         1 4BS      -0.085000
     18 C19          7.0180     0.3790    -0.7670 ca         1 4BS      -0.115000
     19 C20          7.5550    -0.6690    -0.0010 ca         1 4BS      -0.099000
     20 C21          6.7700    -1.2900     0.9850 ca         1 4BS      -0.115000
     21 C22          5.4490    -0.8630     1.2060 ca         1 4BS      -0.085000
     22 HN1         -7.9940    -1.2220     2.0460 hn         1 4BS       0.392500
     23 HN1A        -9.3550    -0.6320     1.4130 hn         1 4BS       0.392500
     24 H2          -8.2110     0.3060    -0.4680 h1         1 4BS       0.023200
     25 H2A         -7.5920     0.9010     1.0950 h1         1 4BS       0.023200
     26 H3          -5.7280    -0.7850     0.9820 hc         1 4BS       0.064700
     27 H3A         -6.3480    -1.3730    -0.5620 hc         1 4BS       0.064700
     28 H4          -5.9410     0.8590    -1.5970 hc         1 4BS       0.055700
     29 H4A         -5.3280     1.4710    -0.0260 hc         1 4BS       0.055700
     30 HN7         -3.3020     1.2700     0.4180 hn         1 4BS       0.145000
     31 H10         -1.4920    -1.2010    -1.7700 ha         1 4BS       0.128000
     32 H11          0.9520    -1.4480    -1.6660 ha         1 4BS       0.123500
     33 H13          1.1550     1.6710     1.3250 ha         1 4BS       0.123500
     34 H14         -1.2880     1.9270     1.2250 ha         1 4BS       0.128000
     35 H16          3.3960     1.7250     0.4570 h1         1 4BS       0.038700
     36 H16A         3.2150     0.5060     1.7390 h1         1 4BS       0.038700
     37 H18          5.2870     1.6180    -1.1450 ha         1 4BS       0.115000
     38 H19          7.6240     0.8600    -1.5320 ha         1 4BS       0.114000
     39 H20          8.5770    -1.0000    -0.1720 ha         1 4BS       0.113000
     40 H21          7.1850    -2.1030     1.5780 ha         1 4BS       0.114000
     41 H22          4.8470    -1.3500     1.9700 ha         1 4BS       0.115000
@<TRIPOS>BOND
     1     1     2 1   
     2     1    22 1   
     3     1    23 1   
     4     2     3 1   
     5     2    24 1   
     6     2    25 1   
     7     3     4 1   
     8     3    26 1   
     9     3    27 1   
    10     4     5 1   
    11     4    28 1   
    12     4    29 1   
    13     5     6 2   
    14     5     7 1   
    15     7     8 1   
    16     7    30 1   
    17     8     9 ar  
    18     8    13 ar  
    19     9    10 ar  
    20     9    31 1   
    21    10    11 ar  
    22    10    32 1   
    23    11    12 ar  
    24    11    14 1   
    25    12    13 ar  
    26    12    33 1   
    27    13    34 1   
    28    14    15 1   
    29    15    16 1   
    30    15    35 1   
    31    15    36 1   
    32    16    17 ar  
    33    16    21 ar  
    34    17    18 ar  
    35    17    37 1   
    36    18    19 ar  
    37    18    38 1   
    38    19    20 ar  
    39    19    39 1   
    40    20    21 ar  
    41    20    40 1   
    42    21    41 1   
@<TRIPOS>SUBSTRUCTURE
     1 4BS         1 TEMP              0 ****  ****    0 ROOT
