@<TRIPOS>MOLECULE
4BT
   36    36     1     0     0
SMALL
No Charge or Current Charge


@<TRIPOS>ATOM
      1 CA           0.0400     0.0220    -3.7860 c3         1 4BT       0.071100
      2 CB           1.1340     0.0090    -2.7020 c3         1 4BT      -0.021600
      3 C4          -0.5660    -0.0130     1.3020 ca         1 4BT      -0.082300
      4 C5          -0.2890    -1.2240     0.6400 ca         1 4BT      -0.102750
      5 C6           0.2620    -1.2170    -0.6530 ca         1 4BT      -0.102750
      6 C1           0.5440     0.0010    -1.2990 ca         1 4BT      -0.082300
      7 C2           0.2660     1.2130    -0.6380 ca         1 4BT      -0.102750
      8 C3          -0.2840     1.2060     0.6560 ca         1 4BT      -0.102750
      9 CC          -0.0610    -0.0350     3.7880 c3         1 4BT       0.071100
     10 N1           0.2130    -0.0790     7.8470 nv         1 4BT      -1.037700
     11 C            0.5770    -0.0720     6.5610 c2         1 4BT       0.675100
     12 S           -0.8220    -0.0450     5.4770 ss         1 4BT      -0.380200
     13 N2           1.7850    -0.0420     6.2140 n2         1 4BT      -0.848100
     14 N3          -0.2860     0.0610    -7.8200 nv         1 4BT      -1.037700
     15 C7          -0.6270     0.0480    -6.5250 c2         1 4BT       0.675100
     16 S1           0.7950     0.0320    -5.4750 ss         1 4BT      -0.380200
     17 N4          -1.8200     0.0450    -6.1320 n2         1 4BT      -0.848100
     18 HCA1        -0.5960    -0.8660    -3.6790 h1         1 4BT       0.075450
     19 HCA2        -0.5880     0.9150    -3.6660 h1         1 4BT       0.075450
     20 HCB1         1.7810     0.8850    -2.8360 hc         1 4BT       0.060950
     21 HCB2         1.7730    -0.8700    -2.8500 hc         1 4BT       0.060950
     22 H51         -0.4990    -2.1740     1.1280 ha         1 4BT       0.114250
     23 H61          0.4680    -2.1610    -1.1530 ha         1 4BT       0.114250
     24 H21          0.4770     2.1620    -1.1250 ha         1 4BT       0.114250
     25 H31         -0.4910     2.1500     1.1550 ha         1 4BT       0.114250
     26 HCD1        -1.8040    -0.8960     2.8390 hc         1 4BT       0.060950
     27 HCD2        -1.7940     0.8590     2.8530 hc         1 4BT       0.060950
     28 HCC1         0.5720     0.8550     3.6780 h1         1 4BT       0.075450
     29 HCC2         0.5620    -0.9310     3.6640 h1         1 4BT       0.075450
     30 H1'1         0.9410     0.2790     8.4520 hn         1 4BT       0.469250
     31 H1'2        -0.7090     0.3070     8.0080 hn         1 4BT       0.469250
     32 HN2          1.8260    -0.0240     5.1900 hn         1 4BT       0.390900
     33 HN11        -0.8660    -0.5310    -8.4020 hn         1 4BT       0.469250
     34 HN12         0.7080    -0.0700    -7.9630 hn         1 4BT       0.469250
     35 HN21        -2.4220     0.0960    -6.9620 hn         1 4BT       0.390900
     36 CD          -1.1560    -0.0210     2.7050 c3         1 4BT      -0.021600
@<TRIPOS>BOND
     1     1     2 1   
     2     1    16 1   
     3     1    18 1   
     4     1    19 1   
     5     2     6 1   
     6     2    20 1   
     7     2    21 1   
     8     3     4 ar  
     9     3     8 ar  
    10     3    36 1   
    11     4     5 ar  
    12     4    22 1   
    13     5     6 ar  
    14     5    23 1   
    15     6     7 ar  
    16     7     8 ar  
    17     7    24 1   
    18     8    25 1   
    19     9    12 1   
    20     9    28 1   
    21     9    29 1   
    22     9    36 1   
    23    10    11 1   
    24    10    30 1   
    25    10    31 1   
    26    11    12 1   
    27    11    13 2   
    28    13    32 1   
    29    14    15 1   
    30    14    33 1   
    31    14    34 1   
    32    15    16 1   
    33    15    17 2   
    34    17    35 1   
    35    26    36 1   
    36    27    36 1   
@<TRIPOS>SUBSTRUCTURE
     1 4BT         1 TEMP              0 ****  ****    0 ROOT
