@<TRIPOS>MOLECULE
4BT
   36    36     1     0     0
SMALL
abcg2


@<TRIPOS>ATOM
      1 CA           0.0620     0.0170    -3.7040 c3         1 4BT       0.071100
      2 CB           1.1530     0.0110    -2.6360 c3         1 4BT      -0.021600
      3 C4          -0.6630    -0.0460     1.2840 ca         1 4BT      -0.082300
      4 C5          -0.3570    -1.2310     0.6210 ca         1 4BT      -0.102750
      5 C6           0.2340    -1.2130    -0.6340 ca         1 4BT      -0.102750
      6 C1           0.5420    -0.0090    -1.2620 ca         1 4BT      -0.082300
      7 C2           0.2320     1.1760    -0.6010 ca         1 4BT      -0.102750
      8 C3          -0.3600     1.1580     0.6540 ca         1 4BT      -0.102750
      9 CC          -0.1200    -0.0640     3.7050 c3         1 4BT       0.071100
     10 N1           0.2830     0.0520     7.7120 nv         1 4BT      -1.037700
     11 C            0.6230     0.0120     6.3920 c2         1 4BT       0.675100
     12 S           -0.8350    -0.1230     5.3710 ss         1 4BT      -0.380200
     13 N2           1.8350     0.0180     6.0140 n2         1 4BT      -0.848100
     14 N3          -0.1720     0.0760    -7.7310 nv         1 4BT      -1.037700
     15 C7          -0.5520     0.0380    -6.4210 c2         1 4BT       0.675100
     16 S1           0.8520     0.0540    -5.3350 ss         1 4BT      -0.380200
     17 N4          -1.7290     0.0500    -5.9450 n2         1 4BT      -0.848100
     18 HCA1        -0.5620    -0.8730    -3.6290 h1         1 4BT       0.075450
     19 HCA2        -0.5810     0.8910    -3.6000 h1         1 4BT       0.075450
     20 HCB1         1.7860     0.8940    -2.7490 hc         1 4BT       0.060950
     21 HCB2         1.7970    -0.8610    -2.7710 hc         1 4BT       0.060950
     22 H51         -0.5830    -2.1820     1.0890 ha         1 4BT       0.114250
     23 H61          0.4640    -2.1510    -1.1270 ha         1 4BT       0.114250
     24 H21          0.4590     2.1270    -1.0680 ha         1 4BT       0.114250
     25 H31         -0.5870     2.0950     1.1490 ha         1 4BT       0.114250
     26 HCD1        -1.8660    -0.9550     2.8040 hc         1 4BT       0.060950
     27 HCD2        -1.8880     0.8010     2.8250 hc         1 4BT       0.060950
     28 HCC1         0.4820     0.8400     3.6050 h1         1 4BT       0.075450
     29 HCC2         0.5250    -0.9320     3.5600 h1         1 4BT       0.075450
     30 H1'1         1.0300     0.3080     8.3390 hn         1 4BT       0.469250
     31 H1'2        -0.6110     0.4410     7.9680 hn         1 4BT       0.469250
     32 HN2          1.9490    -0.0990     5.0170 hn         1 4BT       0.390900
     33 HN11        -0.8760    -0.1600    -8.4130 hn         1 4BT       0.469250
     34 HN12         0.7480    -0.2550    -7.9780 hn         1 4BT       0.469250
     35 HN21        -2.4260     0.0360    -6.6840 hn         1 4BT       0.390900
     36 CD          -1.2440    -0.0670     2.6710 c3         1 4BT      -0.021600
@<TRIPOS>BOND
     1     1     2 1   
     2     1    16 1   
     3     1    18 1   
     4     1    19 1   
     5     2     6 1   
     6     2    20 1   
     7     2    21 1   
     8     3     4 ar  
     9     3     8 ar  
    10     3    36 1   
    11     4     5 ar  
    12     4    22 1   
    13     5     6 ar  
    14     5    23 1   
    15     6     7 ar  
    16     7     8 ar  
    17     7    24 1   
    18     8    25 1   
    19     9    12 1   
    20     9    28 1   
    21     9    29 1   
    22     9    36 1   
    23    10    11 1   
    24    10    30 1   
    25    10    31 1   
    26    11    12 1   
    27    11    13 2   
    28    13    32 1   
    29    14    15 1   
    30    14    33 1   
    31    14    34 1   
    32    15    16 1   
    33    15    17 2   
    34    17    35 1   
    35    26    36 1   
    36    27    36 1   
@<TRIPOS>SUBSTRUCTURE
     1 4BT         1 TEMP              0 ****  ****    0 ROOT
