@<TRIPOS>MOLECULE
4BU
   47    48     1     0     0
SMALL
No Charge or Current Charge


@<TRIPOS>ATOM
      1 O9          13.4390    41.2640    67.6400 o          1 4BU      -0.605100
      2 C8          12.7350    42.0170    66.9720 c          1 4BU       0.630100
      3 C7          13.3230    43.2720    66.3010 c3         1 4BU      -0.136400
      4 C6          14.2420    42.9540    65.0900 c3         1 4BU      -0.047400
      5 C4          13.5070    42.4880    63.8030 c3         1 4BU       0.015500
      6 N5          12.8410    41.1530    64.0130 n8         1 4BU      -1.012200
      7 C2          14.4760    42.5870    62.5520 c          1 4BU       0.686000
      8 O3          14.2520    43.4480    61.7120 o          1 4BU      -0.732500
      9 O1          15.3450    41.7350    62.4190 o          1 4BU      -0.732500
     10 N10         11.3600    41.8800    66.8230 ns         1 4BU      -0.143000
     11 C12         10.4310    40.9160    67.3060 ca         1 4BU      -0.024000
     12 C13          9.0670    41.1360    67.0400 ca         1 4BU      -0.123000
     13 C14          8.0930    40.2270    67.4880 ca         1 4BU      -0.139500
     14 C15          8.4650    39.0830    68.2110 ca         1 4BU       0.085100
     15 C16          9.8330    38.8480    68.4730 ca         1 4BU      -0.139500
     16 C17         10.8070    39.7590    68.0250 ca         1 4BU      -0.123000
     17 O18          7.4610    38.2260    68.6190 os         1 4BU      -0.343100
     18 C19          7.6830    37.1160    69.5230 c3         1 4BU       0.173600
     19 C20          7.9340    37.6420    70.9690 c3         1 4BU       0.180600
     20 O21          6.7310    38.1970    71.5250 oh         1 4BU      -0.648000
     21 C23          8.4480    36.5420    71.8940 ca         1 4BU      -0.129300
     22 C24          7.6790    35.3830    72.1370 ca         1 4BU      -0.096500
     23 C25          8.1640    34.3730    72.9860 ca         1 4BU      -0.113000
     24 C26          9.4190    34.5120    73.6000 ca         1 4BU      -0.108000
     25 C27         10.1890    35.6620    73.3660 ca         1 4BU      -0.113000
     26 C28          9.7060    36.6740    72.5170 ca         1 4BU      -0.096500
     27 H7          12.5170    43.9350    65.9620 hc         1 4BU       0.039700
     28 H7A         13.9300    43.7990    67.0470 hc         1 4BU       0.039700
     29 H6          14.7940    43.8700    64.8460 hc         1 4BU       0.057200
     30 H6A         14.9980    42.2130    65.3780 hc         1 4BU       0.057200
     31 H4          12.7000    43.2100    63.6170 h1         1 4BU       0.034700
     32 HN5         12.3010    40.9130    63.1720 hn         1 4BU       0.389500
     33 HN5A        13.5710    40.4290    64.0290 hn         1 4BU       0.389500
     34 HN10        10.9370    42.6020    66.2550 hn         1 4BU       0.148000
     35 H13          8.7560    42.0180    66.4830 ha         1 4BU       0.131000
     36 H14          7.0430    40.4110    67.2750 ha         1 4BU       0.113000
     37 H16         10.1620    37.9670    69.0160 ha         1 4BU       0.113000
     38 H17         11.8480    39.5420    68.2400 ha         1 4BU       0.131000
     39 H19          6.8020    36.4640    69.5350 h1         1 4BU       0.062700
     40 H19A         8.5300    36.5030    69.1910 h1         1 4BU       0.062700
     41 H20          8.7020    38.4250    70.9170 h1         1 4BU       0.053700
     42 HO21         6.9230    38.3830    72.4700 ho         1 4BU       0.440000
     43 H24          6.7020    35.2650    71.6710 ha         1 4BU       0.121000
     44 H25          7.5650    33.4830    73.1690 ha         1 4BU       0.112500
     45 H26          9.7940    33.7300    74.2580 ha         1 4BU       0.110000
     46 H27         11.1620    35.7710    73.8410 ha         1 4BU       0.112500
     47 H28         10.3150    37.5590    72.3430 ha         1 4BU       0.121000
@<TRIPOS>BOND
     1     1     2 2   
     2     2     3 1   
     3     2    10 1   
     4     3     4 1   
     5     3    27 1   
     6     3    28 1   
     7     4     5 1   
     8     4    29 1   
     9     4    30 1   
    10     5     6 1   
    11     5     7 1   
    12     5    31 1   
    13     6    32 1   
    14     6    33 1   
    15     7     8 1   
    16     7     9 1   
    17    10    11 1   
    18    10    34 1   
    19    11    12 ar  
    20    11    16 ar  
    21    12    13 ar  
    22    12    35 1   
    23    13    14 ar  
    24    13    36 1   
    25    14    15 ar  
    26    14    17 1   
    27    15    16 ar  
    28    15    37 1   
    29    16    38 1   
    30    17    18 1   
    31    18    19 1   
    32    18    39 1   
    33    18    40 1   
    34    19    20 1   
    35    19    21 1   
    36    19    41 1   
    37    20    42 1   
    38    21    22 ar  
    39    21    26 ar  
    40    22    23 ar  
    41    22    43 1   
    42    23    24 ar  
    43    23    44 1   
    44    24    25 ar  
    45    24    45 1   
    46    25    26 ar  
    47    25    46 1   
    48    26    47 1   
@<TRIPOS>SUBSTRUCTURE
     1 4BU         1 TEMP              0 ****  ****    0 ROOT
