@<TRIPOS>MOLECULE
4BU
   47    48     1     0     0
SMALL
abcg2


@<TRIPOS>ATOM
      1 O9          13.2310    41.1300    67.2270 o          1 4BU      -0.605100
      2 C8          12.5000    41.9950    66.7500 c          1 4BU       0.630100
      3 C7          13.0630    43.2620    66.1350 c3         1 4BU      -0.136400
      4 C6          14.1680    43.0180    65.1050 c3         1 4BU      -0.047400
      5 C4          13.6580    42.5640    63.7320 c3         1 4BU       0.015500
      6 N5          12.9400    41.2920    63.8490 n8         1 4BU      -1.012200
      7 C2          14.8540    42.5580    62.7410 c          1 4BU       0.686000
      8 O3          15.1860    43.6760    62.2670 o          1 4BU      -0.732500
      9 O1          15.4160    41.4580    62.5120 o          1 4BU      -0.732500
     10 N10         11.1410    41.9370    66.7880 ns         1 4BU      -0.143000
     11 C12         10.3040    40.9300    67.3040 ca         1 4BU      -0.024000
     12 C13          8.9340    41.0350    67.0300 ca         1 4BU      -0.123000
     13 C14          8.0390    40.1000    67.5140 ca         1 4BU      -0.139500
     14 C15          8.4860    39.0250    68.2850 ca         1 4BU       0.085100
     15 C16          9.8460    38.9150    68.5650 ca         1 4BU      -0.139500
     16 C17         10.7480    39.8600    68.0790 ca         1 4BU      -0.123000
     17 O18          7.5230    38.1420    68.6900 os         1 4BU      -0.343100
     18 C19          7.8570    37.1170    69.6220 c3         1 4BU       0.173600
     19 C20          7.9830    37.6350    71.0520 c3         1 4BU       0.180600
     20 O21          6.7000    38.1420    71.4180 oh         1 4BU      -0.648000
     21 C23          8.4670    36.5240    71.9570 ca         1 4BU      -0.129300
     22 C24          7.5710    35.6390    72.5540 ca         1 4BU      -0.096500
     23 C25          8.0350    34.5970    73.3520 ca         1 4BU      -0.113000
     24 C26          9.4010    34.4260    73.5550 ca         1 4BU      -0.108000
     25 C27         10.3020    35.3060    72.9590 ca         1 4BU      -0.113000
     26 C28          9.8350    36.3480    72.1660 ca         1 4BU      -0.096500
     27 H7          12.2690    43.8700    65.6970 hc         1 4BU       0.039700
     28 H7A         13.4780    43.8340    66.9700 hc         1 4BU       0.039700
     29 H6          14.7290    43.9430    64.9700 hc         1 4BU       0.057200
     30 H6A         14.8670    42.2730    65.4960 hc         1 4BU       0.057200
     31 H4          12.9470    43.3120    63.3700 h1         1 4BU       0.034700
     32 HN5         12.5530    41.0460    62.9430 hn         1 4BU       0.389500
     33 HN5A        13.6190    40.5640    64.0550 hn         1 4BU       0.389500
     34 HN10        10.6590    42.6850    66.3160 hn         1 4BU       0.148000
     35 H13          8.5710    41.8620    66.4310 ha         1 4BU       0.131000
     36 H14          6.9820    40.1890    67.2990 ha         1 4BU       0.113000
     37 H16         10.2290    38.1030    69.1650 ha         1 4BU       0.113000
     38 H17         11.7960    39.7620    68.3060 ha         1 4BU       0.131000
     39 H19          7.0310    36.4070    69.5760 h1         1 4BU       0.062700
     40 H19A         8.7720    36.6010    69.3260 h1         1 4BU       0.062700
     41 H20          8.7170    38.4470    71.0710 h1         1 4BU       0.053700
     42 HO21         6.7690    38.5270    72.3010 ho         1 4BU       0.440000
     43 H24          6.5080    35.7740    72.4020 ha         1 4BU       0.121000
     44 H25          7.3290    33.9180    73.8140 ha         1 4BU       0.112500
     45 H26          9.7620    33.6170    74.1770 ha         1 4BU       0.110000
     46 H27         11.3660    35.1830    73.1170 ha         1 4BU       0.112500
     47 H28         10.5370    37.0360    71.7090 ha         1 4BU       0.121000
@<TRIPOS>BOND
     1     1     2 2   
     2     2     3 1   
     3     2    10 1   
     4     3     4 1   
     5     3    27 1   
     6     3    28 1   
     7     4     5 1   
     8     4    29 1   
     9     4    30 1   
    10     5     6 1   
    11     5     7 1   
    12     5    31 1   
    13     6    32 1   
    14     6    33 1   
    15     7     8 1   
    16     7     9 1   
    17    10    11 1   
    18    10    34 1   
    19    11    12 ar  
    20    11    16 ar  
    21    12    13 ar  
    22    12    35 1   
    23    13    14 ar  
    24    13    36 1   
    25    14    15 ar  
    26    14    17 1   
    27    15    16 ar  
    28    15    37 1   
    29    16    38 1   
    30    17    18 1   
    31    18    19 1   
    32    18    39 1   
    33    18    40 1   
    34    19    20 1   
    35    19    21 1   
    36    19    41 1   
    37    20    42 1   
    38    21    22 ar  
    39    21    26 ar  
    40    22    23 ar  
    41    22    43 1   
    42    23    24 ar  
    43    23    44 1   
    44    24    25 ar  
    45    24    45 1   
    46    25    26 ar  
    47    25    46 1   
    48    26    47 1   
@<TRIPOS>SUBSTRUCTURE
     1 4BU         1 TEMP              0 ****  ****    0 ROOT
