@<TRIPOS>MOLECULE
4BV
   63    67     1     0     0
SMALL
No Charge or Current Charge


@<TRIPOS>ATOM
      1 CBG          8.9830    -0.0930    -0.2880 c5         1 4BV      -0.112400
      2 CBH          9.7180    -1.3990    -0.7120 c5         1 4BV       0.157600
      3 OBI          8.7230    -2.4510    -0.6570 os         1 4BV      -0.462000
      4 CBJ          7.5710    -1.9470     0.0460 c5         1 4BV       0.162600
      5 CBF          7.4890    -0.4870    -0.4490 c5         1 4BV      -0.106700
      6 CBE          6.4960     0.4110     0.3190 c3         1 4BV       0.175600
      7 OBD          5.1780    -0.1280     0.1240 os         1 4BV      -0.350100
      8 CAZ          4.0590     0.4470     0.6890 ca         1 4BV       0.173100
      9 CAY          2.8180    -0.1580     0.4420 ca         1 4BV      -0.171000
     10 CBA          4.1240     1.6040     1.4950 ca         1 4BV      -0.222000
     11 CBB          2.9500     2.1430     2.0500 ca         1 4BV      -0.043000
     12 CBC          1.7110     1.5310     1.7980 ca         1 4BV      -0.206000
     13 CAX          1.6440     0.3850     0.9830 ca         1 4BV       0.157100
     14 OAM          0.4440    -0.2380     0.7310 os         1 4BV      -0.255200
     15 CAB         -0.7320     0.4560     0.5200 ca         1 4BV       0.080100
     16 CAA         -0.7220     1.6540    -0.2320 ca         1 4BV      -0.141000
     17 CAF         -1.9310     2.3370    -0.4030 ca         1 4BV       0.020600
     18 NAI         -2.2550     3.3670    -1.3280 n          1 4BV      -0.292000
     19 CAK         -1.2920     4.3490    -1.8550 c3         1 4BV       0.104300
     20 CAH         -3.6460     3.5090    -1.4320 c          1 4BV       0.598000
     21 OAJ         -4.2600     4.3480    -2.0750 o          1 4BV      -0.555000
     22 NAG         -4.1780     2.5120    -0.6020 n          1 4BV      -0.287000
     23 CAL         -5.6000     2.4290    -0.2270 c3         1 4BV       0.102300
     24 CAE         -3.1300     1.8030     0.0490 ca         1 4BV      -0.000400
     25 CAD         -3.1770     0.5640     0.7010 ca         1 4BV      -0.057000
     26 CAC         -1.9620    -0.1050     0.9710 ca         1 4BV       0.226000
     27 NAN         -1.9600    -1.3420     1.6230 nu         1 4BV      -0.860100
     28 SAO         -2.9060    -2.6790     1.2290 sy         1 4BV       1.123200
     29 OAP         -2.0110    -3.8020     1.5240 o          1 4BV      -0.530500
     30 OAQ         -4.1720    -2.4580     1.9370 o          1 4BV      -0.530500
     31 CAR         -3.1370    -2.4890    -0.5840 cc         1 4BV      -0.015100
     32 CAV         -4.2780    -1.9850    -1.1590 cd         1 4BV      -0.094000
     33 NAS         -2.1930    -2.7820    -1.5500 nc         1 4BV      -0.583000
     34 CAT         -2.7420    -2.4580    -2.7130 cd         1 4BV       0.387400
     35 NAU         -4.0220    -1.9590    -2.5180 na         1 4BV      -0.149500
     36 CAW         -4.9330    -1.4720    -3.5630 c3         1 4BV       0.050900
     37 H1           9.2250     0.1670     0.7490 hc         1 4BV       0.056200
     38 H2           9.2630     0.7650    -0.9110 hc         1 4BV       0.056200
     39 H3          10.1070    -1.3380    -1.7380 h1         1 4BV       0.045700
     40 H4          10.5490    -1.6390    -0.0360 h1         1 4BV       0.045700
     41 H5           6.6820    -2.5400    -0.2070 h1         1 4BV       0.051700
     42 H6           7.7490    -2.0080     1.1290 h1         1 4BV       0.051700
     43 H7           7.1940    -0.4610    -1.5050 hc         1 4BV       0.072700
     44 H8           6.7600     0.4190     1.3850 h1         1 4BV       0.040200
     45 H9           6.5600     1.4360    -0.0690 h1         1 4BV       0.040200
     46 H10          2.7650    -1.0490    -0.1770 ha         1 4BV       0.138000
     47 H11          5.0690     2.0950     1.7050 ha         1 4BV       0.121000
     48 H12          3.0010     3.0310     2.6770 ha         1 4BV       0.115000
     49 H13          0.8070     1.9450     2.2380 ha         1 4BV       0.132000
     50 H14          0.1940     2.0270    -0.6800 ha         1 4BV       0.138000
     51 H15         -0.9590     4.0360    -2.8520 h1         1 4BV       0.052700
     52 H16         -1.7620     5.3380    -1.9260 h1         1 4BV       0.052700
     53 H17         -0.4240     4.4160    -1.1880 h1         1 4BV       0.052700
     54 H18         -6.2130     3.0240    -0.9160 h1         1 4BV       0.056033
     55 H19         -5.9330     1.3840    -0.2700 h1         1 4BV       0.056033
     56 H20         -5.7340     2.8090     0.7930 h1         1 4BV       0.056033
     57 H21         -4.1300     0.1260     0.9810 ha         1 4BV       0.154000
     58 H22         -1.0370    -1.7480     1.7150 hn         1 4BV       0.500000
     59 H23         -5.2070    -1.6440    -0.7140 h4         1 4BV       0.178000
     60 H24         -2.2930    -2.5460    -3.6960 h5         1 4BV       0.060100
     61 H25         -4.9920    -0.3770    -3.5170 h1         1 4BV       0.059367
     62 H26         -4.5660    -1.7740    -4.5520 h1         1 4BV       0.059367
     63 H27         -5.9330    -1.8950    -3.4060 h1         1 4BV       0.059367
@<TRIPOS>BOND
     1     1     2 1   
     2     1     5 1   
     3     1    37 1   
     4     1    38 1   
     5     2     3 1   
     6     2    39 1   
     7     2    40 1   
     8     3     4 1   
     9     4     5 1   
    10     4    41 1   
    11     4    42 1   
    12     5     6 1   
    13     5    43 1   
    14     6     7 1   
    15     6    44 1   
    16     6    45 1   
    17     7     8 1   
    18     8     9 ar  
    19     8    10 ar  
    20     9    13 ar  
    21     9    46 1   
    22    10    11 ar  
    23    10    47 1   
    24    11    12 ar  
    25    11    48 1   
    26    12    13 ar  
    27    12    49 1   
    28    13    14 1   
    29    14    15 1   
    30    15    16 ar  
    31    15    26 ar  
    32    16    17 ar  
    33    16    50 1   
    34    17    18 1   
    35    17    24 ar  
    36    18    19 1   
    37    18    20 1   
    38    19    51 1   
    39    19    52 1   
    40    19    53 1   
    41    20    21 2   
    42    20    22 1   
    43    22    23 1   
    44    22    24 1   
    45    23    54 1   
    46    23    55 1   
    47    23    56 1   
    48    24    25 ar  
    49    25    26 ar  
    50    25    57 1   
    51    26    27 1   
    52    27    28 1   
    53    27    58 1   
    54    28    29 2   
    55    28    30 2   
    56    28    31 1   
    57    31    32 2   
    58    31    33 1   
    59    32    35 1   
    60    32    59 1   
    61    33    34 2   
    62    34    35 1   
    63    34    60 1   
    64    35    36 1   
    65    36    61 1   
    66    36    62 1   
    67    36    63 1   
@<TRIPOS>SUBSTRUCTURE
     1 4BV         1 TEMP              0 ****  ****    0 ROOT
