@<TRIPOS>MOLECULE
4BV
   63    67     1     0     0
SMALL
abcg2


@<TRIPOS>ATOM
      1 CBG          8.1390    -0.6060    -0.5890 c5         1 4BV      -0.112400
      2 CBH          8.7480    -1.9180    -1.0570 c5         1 4BV       0.157600
      3 OBI          7.7470    -2.9110    -0.8770 os         1 4BV      -0.462000
      4 CBJ          6.4990    -2.3030    -0.5890 c5         1 4BV       0.162600
      5 CBF          6.6600    -0.8180    -0.9040 c5         1 4BV      -0.106700
      6 CBE          5.7510     0.0800    -0.1000 c3         1 4BV       0.175600
      7 OBD          4.4110    -0.2600    -0.4190 os         1 4BV      -0.350100
      8 CAZ          3.4060     0.3750     0.2110 ca         1 4BV       0.173100
      9 CAY          2.1200    -0.0420    -0.1290 ca         1 4BV      -0.171000
     10 CBA          3.5840     1.3960     1.1440 ca         1 4BV      -0.222000
     11 CBB          2.4640     1.9740     1.7280 ca         1 4BV      -0.043000
     12 CBC          1.1780     1.5670     1.4110 ca         1 4BV      -0.206000
     13 CAX          1.0240     0.5510     0.4720 ca         1 4BV       0.157100
     14 OAM         -0.1940     0.0470     0.1170 os         1 4BV      -0.255200
     15 CAB         -1.3150     0.8130     0.2480 ca         1 4BV       0.080100
     16 CAA         -1.4320     2.0150    -0.4480 ca         1 4BV      -0.141000
     17 CAF         -2.6220     2.6980    -0.3250 ca         1 4BV       0.020600
     18 NAI         -3.0490     3.8810    -0.8720 n          1 4BV      -0.292000
     19 CAK         -2.2740     4.7120    -1.7570 c3         1 4BV       0.104300
     20 CAH         -4.3370     4.1520    -0.4580 c          1 4BV       0.598000
     21 OAJ         -5.0100     5.1200    -0.7590 o          1 4BV      -0.555000
     22 NAG         -4.7040     3.1120     0.3630 n          1 4BV      -0.287000
     23 CAL         -5.9780     2.9900     1.0220 c3         1 4BV       0.102300
     24 CAE         -3.6700     2.2080     0.4640 ca         1 4BV      -0.000400
     25 CAD         -3.5510     1.0290     1.1610 ca         1 4BV      -0.057000
     26 CAC         -2.3470     0.3280     1.0550 ca         1 4BV       0.226000
     27 NAN         -2.2030    -0.8840     1.7750 nu         1 4BV      -0.860100
     28 SAO         -2.7720    -2.2810     1.0600 sy         1 4BV       1.123200
     29 OAP         -2.5230    -3.3380     2.0220 o          1 4BV      -0.530500
     30 OAQ         -4.1170    -1.9870     0.5990 o          1 4BV      -0.530500
     31 CAR         -1.7900    -2.5510    -0.3480 cc         1 4BV      -0.015100
     32 CAV         -2.0510    -2.0990    -1.6130 cd         1 4BV      -0.094000
     33 NAS         -0.5620    -3.1230    -0.2660 nc         1 4BV      -0.583000
     34 CAT         -0.0820    -3.0310    -1.4760 cd         1 4BV       0.387400
     35 NAU         -0.9460    -2.4230    -2.3240 na         1 4BV      -0.149500
     36 CAW         -0.7160    -2.1460    -3.7280 c3         1 4BV       0.050900
     37 H1           8.2820    -0.4700     0.4870 hc         1 4BV       0.056200
     38 H2           8.5670     0.2590    -1.0950 hc         1 4BV       0.056200
     39 H3           9.0280    -1.8590    -2.1150 h1         1 4BV       0.045700
     40 H4           9.6420    -2.1930    -0.4920 h1         1 4BV       0.045700
     41 H5           5.7170    -2.7800    -1.1820 h1         1 4BV       0.051700
     42 H6           6.2460    -2.4410     0.4720 h1         1 4BV       0.051700
     43 H7           6.4900    -0.6420    -1.9710 hc         1 4BV       0.072700
     44 H8           5.9350    -0.0650     0.9720 h1         1 4BV       0.040200
     45 H9           5.9470     1.1320    -0.3340 h1         1 4BV       0.040200
     46 H10          1.9810    -0.8330    -0.8550 ha         1 4BV       0.138000
     47 H11          4.5660     1.7470     1.4240 ha         1 4BV       0.121000
     48 H12          2.6000     2.7630     2.4560 ha         1 4BV       0.115000
     49 H13          0.3260     2.0300     1.8910 ha         1 4BV       0.132000
     50 H14         -0.6220     2.3790    -1.0670 ha         1 4BV       0.138000
     51 H15         -2.0610     4.1900    -2.6900 h1         1 4BV       0.052700
     52 H16         -2.8330     5.6140    -1.9820 h1         1 4BV       0.052700
     53 H17         -1.3330     4.9930    -1.2870 h1         1 4BV       0.052700
     54 H18         -6.6290     3.7930     0.6900 h1         1 4BV       0.056033
     55 H19         -6.4450     2.0380     0.7710 h1         1 4BV       0.056033
     56 H20         -5.8650     3.0550     2.1040 h1         1 4BV       0.056033
     57 H21         -4.3430     0.6500     1.7920 ha         1 4BV       0.154000
     58 H22         -1.2920    -1.0330     2.1980 hn         1 4BV       0.500000
     59 H23         -2.9020    -1.5990    -2.0440 h4         1 4BV       0.178000
     60 H24          0.8790    -3.3980    -1.8040 h5         1 4BV       0.060100
     61 H25         -0.5910    -1.0780    -3.8890 h1         1 4BV       0.059367
     62 H26          0.1860    -2.6600    -4.0450 h1         1 4BV       0.059367
     63 H27         -1.5520    -2.5050    -4.3220 h1         1 4BV       0.059367
@<TRIPOS>BOND
     1     1     2 1   
     2     1     5 1   
     3     1    37 1   
     4     1    38 1   
     5     2     3 1   
     6     2    39 1   
     7     2    40 1   
     8     3     4 1   
     9     4     5 1   
    10     4    41 1   
    11     4    42 1   
    12     5     6 1   
    13     5    43 1   
    14     6     7 1   
    15     6    44 1   
    16     6    45 1   
    17     7     8 1   
    18     8     9 ar  
    19     8    10 ar  
    20     9    13 ar  
    21     9    46 1   
    22    10    11 ar  
    23    10    47 1   
    24    11    12 ar  
    25    11    48 1   
    26    12    13 ar  
    27    12    49 1   
    28    13    14 1   
    29    14    15 1   
    30    15    16 ar  
    31    15    26 ar  
    32    16    17 ar  
    33    16    50 1   
    34    17    18 1   
    35    17    24 ar  
    36    18    19 1   
    37    18    20 1   
    38    19    51 1   
    39    19    52 1   
    40    19    53 1   
    41    20    21 2   
    42    20    22 1   
    43    22    23 1   
    44    22    24 1   
    45    23    54 1   
    46    23    55 1   
    47    23    56 1   
    48    24    25 ar  
    49    25    26 ar  
    50    25    57 1   
    51    26    27 1   
    52    27    28 1   
    53    27    58 1   
    54    28    29 2   
    55    28    30 2   
    56    28    31 1   
    57    31    32 2   
    58    31    33 1   
    59    32    35 1   
    60    32    59 1   
    61    33    34 2   
    62    34    35 1   
    63    34    60 1   
    64    35    36 1   
    65    36    61 1   
    66    36    62 1   
    67    36    63 1   
@<TRIPOS>SUBSTRUCTURE
     1 4BV         1 TEMP              0 ****  ****    0 ROOT
