@<TRIPOS>MOLECULE
4BW
   67    73     1     0     0
SMALL
No Charge or Current Charge


@<TRIPOS>ATOM
      1 OAC         76.6760   -23.1490    81.9990 o          1 4BW      -0.547000
      2 CBC         77.5690   -22.5860    81.3800 c          1 4BW       0.512500
      3 NAT         77.3140   -21.8140    80.2880 ns         1 4BW      -0.466400
      4 CBA         78.2730   -21.1650    79.5910 cc         1 4BW       0.682800
      5 NAA         77.8390   -20.3850    78.6150 nv         1 4BW      -1.054200
      6 NAS         79.5710   -21.1950    79.7970 nd         1 4BW      -0.661100
      7 CBG         79.9220   -21.9680    80.9050 cd         1 4BW       0.116400
      8 CBE         79.0210   -22.6380    81.6870 cc         1 4BW       0.101500
      9 NAR         79.6640   -23.3140    82.6970 nc         1 4BW      -0.618000
     10 CAL         80.9640   -23.0550    82.5220 cd         1 4BW       0.457400
     11 NBQ         81.1720   -22.2350    81.4130 na         1 4BW      -0.181500
     12 CBO         82.4530   -21.8900    80.7950 c5         1 4BW       0.307300
     13 CBI         82.7800   -20.3660    80.6270 c5         1 4BW       0.111300
     14 OAG         83.5830   -20.0590    79.4690 oh         1 4BW      -0.756000
     15 OAX         83.5490   -22.4580    81.5550 os         1 4BW      -0.456000
     16 CBK         84.1530   -21.4300    82.3870 c5         1 4BW       0.151300
     17 CAN         84.0800   -21.7650    83.9070 c3         1 4BW       0.236600
     18 OAV         82.7820   -21.4270    84.4270 os         1 4BW      -0.636400
     19 PBR         82.6340   -21.0490    85.9860 p5         1 4BW       1.411800
     20 O3          83.2170   -19.5410    85.9510 os         1 4BW      -0.573400
     21 OAH         83.4870   -21.9360    86.8270 o          1 4BW      -0.817000
     22 OAD         81.2110   -21.0920    86.4200 o          1 4BW      -0.817000
     23 CBM         83.5070   -20.0710    81.9880 c5         1 4BW       0.168300
     24 OAZ         84.5880   -19.0990    81.8640 os         1 4BW      -0.588400
     25 PBS         84.2570   -17.5780    81.4540 p5         1 4BW       1.415800
     26 OAI         83.4780   -17.5470    80.1820 o          1 4BW      -0.822000
     27 OAE         85.4950   -16.7550    81.3570 o          1 4BW      -0.822000
     28 O5          83.3990   -17.1850    82.7560 os         1 4BW      -0.629400
     29 C5          84.1390   -17.0090    83.9790 c3         1 4BW       0.230600
     30 C4          83.2240   -17.1780    85.2200 c5         1 4BW       0.140300
     31 O4          82.2460   -16.1040    85.3220 os         1 4BW      -0.452000
     32 C3          82.4060   -18.5010    85.3380 c5         1 4BW       0.222300
     33 C2          81.2780   -18.0270    86.3150 c5         1 4BW       0.100300
     34 O2          81.7480   -17.8120    87.6680 oh         1 4BW      -0.692000
     35 C1          80.9390   -16.6810    85.5750 c5         1 4BW       0.279300
     36 N9          80.2380   -16.7520    84.2800 na         1 4BW      -0.307300
     37 C8          80.1940   -15.6940    83.3650 cc         1 4BW       0.444700
     38 N7          79.4560   -16.0050    82.2790 nd         1 4BW      -0.581100
     39 C7          79.0000   -17.2950    82.5610 ca         1 4BW      -0.074600
     40 C9          79.4500   -17.7560    83.7750 ca         1 4BW       0.117500
     41 N3          79.1030   -18.9710    84.2450 nb         1 4BW      -0.217000
     42 C10         78.2970   -19.7090    83.4500 ca         1 4BW       0.158900
     43 N1          77.8180   -19.3550    82.2370 nb         1 4BW      -0.297000
     44 C6          78.1790   -18.1450    81.7870 ca         1 4BW       0.430900
     45 N6          77.7320   -17.8190    80.5430 nv         1 4BW      -1.071900
     46 H1          76.3480   -21.6930    80.0320 hn         1 4BW       0.300500
     47 H2          78.5800   -20.0950    77.9870 hn         1 4BW       0.484000
     48 H3          76.9870   -20.6760    78.1500 hn         1 4BW       0.484000
     49 H4          81.7830   -23.4480    83.1140 h5         1 4BW       0.119100
     50 H5          82.4100   -22.3640    79.8060 h2         1 4BW       0.094700
     51 H6          81.8430   -19.7930    80.5790 h1         1 4BW       0.080700
     52 H7          83.6440   -19.0530    79.5170 ho         1 4BW       0.572000
     53 H8          85.2190   -21.4170    82.1240 h1         1 4BW       0.064700
     54 H9          84.2970   -22.8310    84.0550 h1         1 4BW       0.038700
     55 H10         84.8630   -21.1870    84.4180 h1         1 4BW       0.038700
     56 H12         82.7790   -19.7240    82.7260 h1         1 4BW       0.055700
     57 H14         84.9510   -17.7440    84.0600 h1         1 4BW       0.043200
     58 H15         84.5920   -16.0090    84.0110 h1         1 4BW       0.043200
     59 H16         83.8790   -17.0890    86.0970 h1         1 4BW       0.068700
     60 H17         82.0010   -18.8370    84.3770 h1         1 4BW       0.047700
     61 H18         80.4190   -18.7080    86.3230 h1         1 4BW       0.108700
     62 H19         82.4130   -18.5190    87.8370 ho         1 4BW       0.493000
     63 H20         80.3400   -16.0170    86.2110 h2         1 4BW       0.077700
     64 H21         80.7220   -14.7610    83.5350 h5         1 4BW       0.123800
     65 H22         78.0090   -20.6910    83.8230 h5         1 4BW       0.027100
     66 H23         77.5880   -18.6030    79.9060 hn         1 4BW       0.488500
     67 H24         78.1580   -16.9960    80.1250 hn         1 4BW       0.488500
@<TRIPOS>BOND
     1     1     2 2   
     2     2     3 1   
     3     2     8 1   
     4     3     4 1   
     5     3    46 1   
     6     4     5 1   
     7     4     6 2   
     8     5    47 1   
     9     5    48 1   
    10     6     7 1   
    11     7     8 2   
    12     7    11 1   
    13     8     9 1   
    14     9    10 2   
    15    10    11 1   
    16    10    49 1   
    17    11    12 1   
    18    12    13 1   
    19    12    15 1   
    20    12    50 1   
    21    13    14 1   
    22    13    23 1   
    23    13    51 1   
    24    14    52 1   
    25    15    16 1   
    26    16    17 1   
    27    16    23 1   
    28    16    53 1   
    29    17    18 1   
    30    17    54 1   
    31    17    55 1   
    32    18    19 1   
    33    19    20 1   
    34    19    21 1   
    35    19    22 1   
    36    20    32 1   
    37    23    24 1   
    38    23    56 1   
    39    24    25 1   
    40    25    26 1   
    41    25    27 1   
    42    25    28 1   
    43    28    29 1   
    44    29    30 1   
    45    29    57 1   
    46    29    58 1   
    47    30    31 1   
    48    30    32 1   
    49    30    59 1   
    50    31    35 1   
    51    32    33 1   
    52    32    60 1   
    53    33    34 1   
    54    33    35 1   
    55    33    61 1   
    56    34    62 1   
    57    35    36 1   
    58    35    63 1   
    59    36    37 1   
    60    36    40 1   
    61    37    38 2   
    62    37    64 1   
    63    38    39 1   
    64    39    40 ar  
    65    39    44 ar  
    66    40    41 ar  
    67    41    42 ar  
    68    42    43 ar  
    69    42    65 1   
    70    43    44 ar  
    71    44    45 1   
    72    45    66 1   
    73    45    67 1   
@<TRIPOS>SUBSTRUCTURE
     1 4BW         1 TEMP              0 ****  ****    0 ROOT
