@<TRIPOS>MOLECULE
4BW
   67    73     1     0     0
SMALL
abcg2


@<TRIPOS>ATOM
      1 OAC         76.4860   -21.8760    81.8300 o          1 4BW      -0.547000
      2 CBC         77.5130   -21.7310    81.1690 c          1 4BW       0.512500
      3 NAT         77.4410   -21.6970    79.7610 ns         1 4BW      -0.466400
      4 CBA         78.5000   -21.5650    78.9030 cc         1 4BW       0.682800
      5 NAA         78.2200   -21.4960    77.5820 nv         1 4BW      -1.054200
      6 NAS         79.7460   -21.4650    79.3170 nd         1 4BW      -0.661100
      7 CBG         79.8680   -21.4860    80.6590 cd         1 4BW       0.116400
      8 CBE         78.8580   -21.5880    81.6110 cc         1 4BW       0.101500
      9 NAR         79.3960   -21.5630    82.8860 nc         1 4BW      -0.618000
     10 CAL         80.6880   -21.4520    82.7100 cd         1 4BW       0.457400
     11 NBQ         81.0370   -21.4120    81.3710 na         1 4BW      -0.181500
     12 CBO         82.3770   -21.3200    80.7950 c5         1 4BW       0.307300
     13 CBI         82.9270   -19.8890    80.7640 c5         1 4BW       0.111300
     14 OAG         83.6210   -19.6800    79.5520 oh         1 4BW      -0.756000
     15 OAX         83.2620   -22.1120    81.5670 os         1 4BW      -0.456000
     16 CBK         84.3240   -21.3180    82.1240 c5         1 4BW       0.151300
     17 CAN         84.6080   -21.7400    83.5500 c3         1 4BW       0.236600
     18 OAV         83.4240   -21.5860    84.3330 os         1 4BW      -0.636400
     19 PBR         83.4330   -21.2550    85.9250 p5         1 4BW       1.411800
     20 O3          83.6520   -19.6280    85.9560 os         1 4BW      -0.573400
     21 OAH         84.6480   -21.8160    86.5780 o          1 4BW      -0.817000
     22 OAD         82.0570   -21.5860    86.3920 o          1 4BW      -0.817000
     23 CBM         83.8580   -19.8750    81.9890 c5         1 4BW       0.168300
     24 OAZ         84.9890   -19.0240    81.9150 os         1 4BW      -0.588400
     25 PBS         84.8000   -17.4110    81.7740 p5         1 4BW       1.415800
     26 OAI         84.0070   -17.1230    80.5350 o          1 4BW      -0.822000
     27 OAE         86.1470   -16.8170    81.9820 o          1 4BW      -0.822000
     28 O5          83.8090   -17.0770    83.0150 os         1 4BW      -0.629400
     29 C5          84.3140   -16.9820    84.3500 c3         1 4BW       0.230600
     30 C4          83.2450   -17.3260    85.3600 c5         1 4BW       0.140300
     31 O4          82.0680   -16.5140    85.1580 os         1 4BW      -0.452000
     32 C3          82.7120   -18.7580    85.3690 c5         1 4BW       0.222300
     33 C2          81.3680   -18.5780    86.0770 c5         1 4BW       0.100300
     34 O2          81.5910   -18.3800    87.4600 oh         1 4BW      -0.692000
     35 C1          80.9030   -17.2700    85.4150 c5         1 4BW       0.279300
     36 N9          80.1850   -17.5110    84.1580 na         1 4BW      -0.307300
     37 C8          80.6750   -17.4520    82.8710 cc         1 4BW       0.444700
     38 N7          79.7720   -17.7490    81.9650 nd         1 4BW      -0.581100
     39 C7          78.6240   -18.0190    82.6870 ca         1 4BW      -0.074600
     40 C9          78.8640   -17.8790    84.0540 ca         1 4BW       0.117500
     41 N3          77.9760   -18.0740    85.0360 nb         1 4BW      -0.217000
     42 C10         76.7810   -18.4240    84.5600 ca         1 4BW       0.158900
     43 N1          76.4130   -18.5870    83.2840 nb         1 4BW      -0.297000
     44 C6          77.3220   -18.3900    82.3110 ca         1 4BW       0.430900
     45 N6          76.9440   -18.5280    81.0250 nv         1 4BW      -1.071900
     46 H1          76.5070   -21.7680    79.3770 hn         1 4BW       0.300500
     47 H2          79.0020   -21.5780    76.9510 hn         1 4BW       0.484000
     48 H3          77.3290   -21.8150    77.2380 hn         1 4BW       0.484000
     49 H4          81.4380   -21.4220    83.4830 h5         1 4BW       0.119100
     50 H5          82.3030   -21.7100    79.7800 h2         1 4BW       0.094700
     51 H6          82.1160   -19.1690    80.8720 h1         1 4BW       0.080700
     52 H7          83.8930   -18.7390    79.5960 ho         1 4BW       0.572000
     53 H8          85.2340   -21.4610    81.5310 h1         1 4BW       0.064700
     54 H9          84.9240   -22.7840    83.5810 h1         1 4BW       0.038700
     55 H10         85.4210   -21.1200    83.9360 h1         1 4BW       0.038700
     56 H12         83.2600   -19.6110    82.8560 h1         1 4BW       0.055700
     57 H14         85.1540   -17.6640    84.5020 h1         1 4BW       0.043200
     58 H15         84.6650   -15.9630    84.5210 h1         1 4BW       0.043200
     59 H16         83.6630   -17.1140    86.3500 h1         1 4BW       0.068700
     60 H17         82.4870   -19.0780    84.3520 h1         1 4BW       0.047700
     61 H18         80.6810   -19.4010    85.8920 h1         1 4BW       0.108700
     62 H19         80.7390   -18.3950    87.9130 ho         1 4BW       0.493000
     63 H20         80.2320   -16.7120    86.0680 h2         1 4BW       0.077700
     64 H21         81.7010   -17.1850    82.6810 h5         1 4BW       0.123800
     65 H22         76.0050   -18.6010    85.2980 h5         1 4BW       0.027100
     66 H23         76.0570   -18.9620    80.8290 hn         1 4BW       0.488500
     67 H24         77.6470   -18.5580    80.3050 hn         1 4BW       0.488500
@<TRIPOS>BOND
     1     1     2 2   
     2     2     3 1   
     3     2     8 1   
     4     3     4 1   
     5     3    46 1   
     6     4     5 1   
     7     4     6 2   
     8     5    47 1   
     9     5    48 1   
    10     6     7 1   
    11     7     8 2   
    12     7    11 1   
    13     8     9 1   
    14     9    10 2   
    15    10    11 1   
    16    10    49 1   
    17    11    12 1   
    18    12    13 1   
    19    12    15 1   
    20    12    50 1   
    21    13    14 1   
    22    13    23 1   
    23    13    51 1   
    24    14    52 1   
    25    15    16 1   
    26    16    17 1   
    27    16    23 1   
    28    16    53 1   
    29    17    18 1   
    30    17    54 1   
    31    17    55 1   
    32    18    19 1   
    33    19    20 1   
    34    19    21 1   
    35    19    22 1   
    36    20    32 1   
    37    23    24 1   
    38    23    56 1   
    39    24    25 1   
    40    25    26 1   
    41    25    27 1   
    42    25    28 1   
    43    28    29 1   
    44    29    30 1   
    45    29    57 1   
    46    29    58 1   
    47    30    31 1   
    48    30    32 1   
    49    30    59 1   
    50    31    35 1   
    51    32    33 1   
    52    32    60 1   
    53    33    34 1   
    54    33    35 1   
    55    33    61 1   
    56    34    62 1   
    57    35    36 1   
    58    35    63 1   
    59    36    37 1   
    60    36    40 1   
    61    37    38 2   
    62    37    64 1   
    63    38    39 1   
    64    39    40 ar  
    65    39    44 ar  
    66    40    41 ar  
    67    41    42 ar  
    68    42    43 ar  
    69    42    65 1   
    70    43    44 ar  
    71    44    45 1   
    72    45    66 1   
    73    45    67 1   
@<TRIPOS>SUBSTRUCTURE
     1 4BW         1 TEMP              0 ****  ****    0 ROOT
