@<TRIPOS>MOLECULE
4BX
   23    24     1     0     0
SMALL
No Charge or Current Charge


@<TRIPOS>ATOM
      1 C1           4.2990     0.3660    -0.4930 ca         1 4BX      -0.118000
      2 C2           4.2630    -0.9240     0.0860 ca         1 4BX      -0.147000
      3 C3           3.0430    -1.4650     0.5460 ca         1 4BX      -0.058000
      4 C4           3.1140     1.1210    -0.6150 ca         1 4BX      -0.116000
      5 N5           0.6630     1.0720    -0.1530 na         1 4BX      -0.321600
      6 C6           1.9250     0.5480    -0.1470 ca         1 4BX      -0.095200
      7 C7           1.8760    -0.6970     0.4140 ca         1 4BX       0.081400
      8 N8           0.5880    -1.0330     0.7940 nc         1 4BX      -0.594100
      9 C9          -0.1100     0.0630     0.4320 cd         1 4BX       0.453800
     10 C10         -1.5990     0.1760     0.6470 c3         1 4BX      -0.082700
     11 C11         -2.4250    -0.0100    -0.6550 c3         1 4BX      -0.206400
     12 C12         -3.9260     0.1180    -0.3540 c          1 4BX       0.719000
     13 O13         -4.4280     1.2300    -0.3960 o          1 4BX      -0.737500
     14 O14         -4.5350    -0.8890    -0.0270 o          1 4BX      -0.737500
     15 H1           5.2420     0.7780    -0.8450 ha         1 4BX       0.096000
     16 H2           5.1800    -1.5020     0.1780 ha         1 4BX       0.098000
     17 H3           3.0050    -2.4560     0.9920 ha         1 4BX       0.120000
     18 H4           3.1260     2.1140    -1.0580 ha         1 4BX       0.105000
     19 H10         -1.9230    -0.5660     1.3870 hc         1 4BX       0.061700
     20 H10A        -1.8260     1.1570     1.0810 hc         1 4BX       0.061700
     21 H11         -2.1030     0.7890    -1.3340 hc         1 4BX       0.032200
     22 H11A        -2.1910    -1.0190    -1.0160 hc         1 4BX       0.032200
     23 HN5          0.3420     1.9680    -0.4980 hn         1 4BX       0.352000
@<TRIPOS>BOND
     1     1     2 ar  
     2     1     4 ar  
     3     1    15 1   
     4     2     3 ar  
     5     2    16 1   
     6     3     7 ar  
     7     3    17 1   
     8     4     6 ar  
     9     4    18 1   
    10     5     6 1   
    11     5     9 1   
    12     5    23 1   
    13     6     7 ar  
    14     7     8 1   
    15     8     9 2   
    16     9    10 1   
    17    10    11 1   
    18    10    19 1   
    19    10    20 1   
    20    11    12 1   
    21    11    21 1   
    22    11    22 1   
    23    12    13 1   
    24    12    14 1   
@<TRIPOS>SUBSTRUCTURE
     1 4BX         1 TEMP              0 ****  ****    0 ROOT
