@<TRIPOS>MOLECULE
4BX
   23    24     1     0     0
SMALL
bcc


@<TRIPOS>ATOM
      1 C1           4.3110     0.3180    -0.4310 ca         1 4BX      -0.136000
      2 C2           4.1490    -1.0000     0.0210 ca         1 4BX      -0.165000
      3 C3           2.9070    -1.4880     0.3900 ca         1 4BX      -0.076000
      4 C4           3.2360     1.1870    -0.5270 ca         1 4BX      -0.134000
      5 N5           0.7420     1.2380    -0.1110 na         1 4BX      -0.271300
      6 C6           1.9940     0.6870    -0.1540 ca         1 4BX      -0.095200
      7 C7           1.8110    -0.6300     0.3020 ca         1 4BX       0.081400
      8 N8           0.4880    -0.8440     0.6050 nc         1 4BX      -0.594100
      9 C9          -0.1160     0.2880     0.3470 cd         1 4BX       0.453800
     10 C10         -1.5740     0.5460     0.5080 c3         1 4BX      -0.082700
     11 C11         -2.4200    -0.3400    -0.4020 c3         1 4BX      -0.206400
     12 C12         -3.9400    -0.1520    -0.2470 c          1 4BX       0.929600
     13 O13         -4.3390     0.6860     0.5840 o          1 4BX      -0.842800
     14 O14         -4.6510    -0.8690    -0.9810 o          1 4BX      -0.842800
     15 H1           5.2980     0.6650    -0.7090 ha         1 4BX       0.114000
     16 H2           5.0150    -1.6450     0.0830 ha         1 4BX       0.116000
     17 H3           2.7880    -2.5060     0.7390 ha         1 4BX       0.138000
     18 H4           3.3620     2.2040    -0.8740 ha         1 4BX       0.123000
     19 H10         -1.8450     0.3690     1.5510 hc         1 4BX       0.061700
     20 H10A        -1.7800     1.5980     0.3070 hc         1 4BX       0.061700
     21 H11         -2.1500    -0.1580    -1.4480 hc         1 4BX       0.032200
     22 H11A        -2.1770    -1.3910    -0.2180 hc         1 4BX       0.032200
     23 HN5          0.4900     2.1790    -0.3690 hn         1 4BX       0.301700
@<TRIPOS>BOND
     1     1     2 ar  
     2     1     4 ar  
     3     1    15 1   
     4     2     3 ar  
     5     2    16 1   
     6     3     7 ar  
     7     3    17 1   
     8     4     6 ar  
     9     4    18 1   
    10     5     6 1   
    11     5     9 1   
    12     5    23 1   
    13     6     7 ar  
    14     7     8 1   
    15     8     9 2   
    16     9    10 1   
    17    10    11 1   
    18    10    19 1   
    19    10    20 1   
    20    11    12 1   
    21    11    21 1   
    22    11    22 1   
    23    12    13 1   
    24    12    14 1   
@<TRIPOS>SUBSTRUCTURE
     1 4BX         1 TEMP              0 ****  ****    0 ROOT
