@<TRIPOS>MOLECULE
4BY
   21    22     1     0     0
SMALL
No Charge or Current Charge


@<TRIPOS>ATOM
      1 C1          -1.6390    -0.0390     0.0050 cc         1 4BY      -0.092300
      2 N2          -0.8540     1.1360    -0.0670 na         1 4BY      -0.196700
      3 C3          -0.6990    -1.0680     0.0650 cd         1 4BY      -0.266200
      4 C4           0.6390    -0.5390     0.0300 ca         1 4BY      -0.096800
      5 C5           0.4960     0.8160    -0.0510 ca         1 4BY      -0.075200
      6 C6          -3.1250    -0.2020     0.0180 c          1 4BY       0.727200
      7 C7           1.8920    -1.1620     0.0650 ca         1 4BY      -0.067000
      8 O8          -3.6020    -1.3270     0.0870 o          1 4BY      -0.713500
      9 C9           1.6090     1.6650    -0.1030 ca         1 4BY      -0.125000
     10 O10         -3.8150     0.8070    -0.0410 o          1 4BY      -0.713500
     11 C11          3.0390    -0.3360     0.0120 ca         1 4BY      -0.137300
     12 C12          2.8910     1.0740    -0.0700 ca         1 4BY      -0.125000
     13 C13          4.4280    -0.9550     0.0500 c3         1 4BY      -0.026800
     14 H3          -0.9530    -2.1240     0.1290 ha         1 4BY       0.204000
     15 H7           1.9750    -2.2450     0.1310 ha         1 4BY       0.096000
     16 H9           1.4910     2.7440    -0.1670 ha         1 4BY       0.097000
     17 H12          3.7720     1.7100    -0.1080 ha         1 4BY       0.085000
     18 H13          5.1410    -0.3720    -0.5460 hc         1 4BY       0.022367
     19 H13A         4.8080    -1.0000     1.0770 hc         1 4BY       0.022367
     20 H13B         4.4230    -1.9760    -0.3500 hc         1 4BY       0.022367
     21 HN2         -1.2310     2.0770    -0.1230 hn         1 4BY       0.359000
@<TRIPOS>BOND
     1     1     2 1   
     2     1     3 2   
     3     1     6 1   
     4     2     5 1   
     5     2    21 1   
     6     3     4 1   
     7     3    14 1   
     8     4     5 ar  
     9     4     7 ar  
    10     5     9 ar  
    11     6     8 1   
    12     6    10 1   
    13     7    11 ar  
    14     7    15 1   
    15     9    12 ar  
    16     9    16 1   
    17    11    12 ar  
    18    11    13 1   
    19    12    17 1   
    20    13    18 1   
    21    13    19 1   
    22    13    20 1   
@<TRIPOS>SUBSTRUCTURE
     1 4BY         1 TEMP              0 ****  ****    0 ROOT
