@<TRIPOS>MOLECULE
4BY
   21    22     1     0     0
SMALL
abcg2


@<TRIPOS>ATOM
      1 C1          -1.5730    -0.1140    -0.0060 cc         1 4BY      -0.092300
      2 N2          -0.8600     1.0540    -0.0380 na         1 4BY      -0.196700
      3 C3          -0.6980    -1.1690     0.0270 cd         1 4BY      -0.266200
      4 C4           0.6190    -0.6230     0.0150 ca         1 4BY      -0.096800
      5 C5           0.4730     0.7820    -0.0260 ca         1 4BY      -0.075200
      6 C6          -3.0760    -0.0950    -0.0090 c          1 4BY       0.727200
      7 C7           1.9100    -1.1730     0.0350 ca         1 4BY      -0.067000
      8 O8          -3.6400    -1.2030     0.0240 o          1 4BY      -0.713500
      9 C9           1.5790     1.6330    -0.0460 ca         1 4BY      -0.125000
     10 O10         -3.6050     1.0340    -0.0430 o          1 4BY      -0.713500
     11 C11          3.0160    -0.3450     0.0160 ca         1 4BY      -0.137300
     12 C12          2.8320     1.0550    -0.0250 ca         1 4BY      -0.125000
     13 C13          4.4100    -0.9060     0.0400 c3         1 4BY      -0.026800
     14 H3          -0.9670    -2.2130     0.0570 ha         1 4BY       0.204000
     15 H7           2.0400    -2.2500     0.0660 ha         1 4BY       0.096000
     16 H9           1.4630     2.7090    -0.0770 ha         1 4BY       0.097000
     17 H12          3.7040     1.6980    -0.0400 ha         1 4BY       0.085000
     18 H13          4.9850    -0.5860    -0.8310 hc         1 4BY       0.022367
     19 H13A         4.9600    -0.5730     0.9220 hc         1 4BY       0.022367
     20 H13B         4.4030    -1.9960     0.0480 hc         1 4BY       0.022367
     21 HN2         -1.2880     1.9640    -0.0660 hn         1 4BY       0.359000
@<TRIPOS>BOND
     1     1     2 1   
     2     1     3 2   
     3     1     6 1   
     4     2     5 1   
     5     2    21 1   
     6     3     4 1   
     7     3    14 1   
     8     4     5 ar  
     9     4     7 ar  
    10     5     9 ar  
    11     6     8 1   
    12     6    10 1   
    13     7    11 ar  
    14     7    15 1   
    15     9    12 ar  
    16     9    16 1   
    17    11    12 ar  
    18    11    13 1   
    19    12    17 1   
    20    13    18 1   
    21    13    19 1   
    22    13    20 1   
@<TRIPOS>SUBSTRUCTURE
     1 4BY         1 TEMP              0 ****  ****    0 ROOT
