@<TRIPOS>MOLECULE
4BZ
   21    21     1     0     0
SMALL
No Charge or Current Charge


@<TRIPOS>ATOM
      1 OA           2.4560     0.1690     4.6820 oh         1 4BZ      -0.649000
      2 CB           1.8280    -1.0320     4.2220 c3         1 4BZ       0.201900
      3 CG           1.8240    -1.0630     2.7000 ca         1 4BZ      -0.115300
      4 CD1          0.6830    -0.6660     1.9800 ca         1 4BZ      -0.105500
      5 CD2          2.9610    -1.4990     1.9950 ca         1 4BZ      -0.105500
      6 CE1          0.6790    -0.6970     0.5740 ca         1 4BZ      -0.087000
      7 CE2          2.9600    -1.5320     0.5890 ca         1 4BZ      -0.087000
      8 CZ           1.8240    -1.1150    -0.1440 ca         1 4BZ      -0.194900
      9 CH           1.8070    -1.1880    -1.6380 ce         1 4BZ       0.659800
     10 NQ1          1.0490    -0.2990    -2.3040 nv         1 4BZ      -1.031200
     11 NQ2          2.5760    -1.9390    -2.3110 n2         1 4BZ      -0.842100
     12 HA           2.0400     0.9060     4.1830 ho         1 4BZ       0.443000
     13 HB2          0.7950    -1.0920     4.5920 h1         1 4BZ       0.052700
     14 HB3          2.3620    -1.9140     4.6030 h1         1 4BZ       0.052700
     15 HD1         -0.2100    -0.3370     2.5090 ha         1 4BZ       0.121000
     16 HD2          3.8500    -1.8120     2.5380 ha         1 4BZ       0.121000
     17 HE1         -0.2270    -0.4030     0.0480 ha         1 4BZ       0.122000
     18 HE2          3.8590    -1.8690     0.0760 ha         1 4BZ       0.122000
     19 HQ11         1.3260    -0.1740    -3.2700 hn         1 4BZ       0.468500
     20 HQ12         0.8210     0.5460    -1.7960 hn         1 4BZ       0.468500
     21 HQ21         3.0410    -2.5770    -1.6530 hn         1 4BZ       0.388400
@<TRIPOS>BOND
     1     1     2 1   
     2     1    12 1   
     3     2     3 1   
     4     2    13 1   
     5     2    14 1   
     6     3     4 ar  
     7     3     5 ar  
     8     4     6 ar  
     9     4    15 1   
    10     5     7 ar  
    11     5    16 1   
    12     6     8 ar  
    13     6    17 1   
    14     7     8 ar  
    15     7    18 1   
    16     8     9 1   
    17     9    10 1   
    18     9    11 2   
    19    10    19 1   
    20    10    20 1   
    21    11    21 1   
@<TRIPOS>SUBSTRUCTURE
     1 4BZ         1 TEMP              0 ****  ****    0 ROOT
