@<TRIPOS>MOLECULE
4BZ
   21    21     1     0     0
SMALL
abcg2


@<TRIPOS>ATOM
      1 OA           2.8850    -0.6350     4.8040 oh         1 4BZ      -0.649000
      2 CB           1.6690    -0.9290     4.1680 c3         1 4BZ       0.201900
      3 CG           1.7460    -0.9600     2.6620 ca         1 4BZ      -0.115300
      4 CD1          0.5840    -0.8180     1.9070 ca         1 4BZ      -0.105500
      5 CD2          2.9510    -1.1590     1.9950 ca         1 4BZ      -0.105500
      6 CE1          0.6200    -0.8790     0.5240 ca         1 4BZ      -0.087000
      7 CE2          2.9900    -1.2240     0.6110 ca         1 4BZ      -0.087000
      8 CZ           1.8270    -1.0870    -0.1430 ca         1 4BZ      -0.194900
      9 CH           1.8860    -1.1790    -1.6290 ce         1 4BZ       0.659800
     10 NQ1          0.9790    -0.4060    -2.2910 nv         1 4BZ      -1.031200
     11 NQ2          2.6810    -1.9440    -2.2770 n2         1 4BZ      -0.842100
     12 HA           3.1180     0.2760     4.6030 ho         1 4BZ       0.443000
     13 HB2          0.8710    -0.2400     4.4710 h1         1 4BZ       0.052700
     14 HB3          1.3670    -1.9190     4.5210 h1         1 4BZ       0.052700
     15 HD1         -0.3640    -0.6550     2.4060 ha         1 4BZ       0.121000
     16 HD2          3.8710    -1.2610     2.5550 ha         1 4BZ       0.121000
     17 HE1         -0.3020    -0.7760    -0.0340 ha         1 4BZ       0.122000
     18 HE2          3.9430    -1.3650     0.1170 ha         1 4BZ       0.122000
     19 HQ11         1.0880    -0.3530    -3.2910 hn         1 4BZ       0.468500
     20 HQ12         0.6840     0.4550    -1.8620 hn         1 4BZ       0.468500
     21 HQ21         3.2110    -2.5280    -1.6410 hn         1 4BZ       0.388400
@<TRIPOS>BOND
     1     1     2 1   
     2     1    12 1   
     3     2     3 1   
     4     2    13 1   
     5     2    14 1   
     6     3     4 ar  
     7     3     5 ar  
     8     4     6 ar  
     9     4    15 1   
    10     5     7 ar  
    11     5    16 1   
    12     6     8 ar  
    13     6    17 1   
    14     7     8 ar  
    15     7    18 1   
    16     8     9 1   
    17     9    10 1   
    18     9    11 2   
    19    10    19 1   
    20    10    20 1   
    21    11    21 1   
@<TRIPOS>SUBSTRUCTURE
     1 4BZ         1 TEMP              0 ****  ****    0 ROOT
