@<TRIPOS>MOLECULE
4C0
   43    45     1     0     0
SMALL
bcc


@<TRIPOS>ATOM
      1 C1          -3.9050     3.9710     0.7440 ca         1 4C0      -0.165000
      2 C2          -4.1540     3.7050    -0.6110 ca         1 4C0      -0.134000
      3 C3          -3.9820     2.4390    -1.1440 ca         1 4C0      -0.128000
      4 C4          -3.4740     2.9770     1.6060 ca         1 4C0      -0.079000
      5 C5          -3.2930     1.6950     1.0890 ca         1 4C0       0.076400
      6 C6          -3.5490     1.4480    -0.2710 ca         1 4C0      -0.086200
      7 N7          -3.2780     0.1160    -0.4330 na         1 4C0      -0.257300
      8 C8          -2.8840    -0.3760     0.7720 cc         1 4C0       0.458800
      9 N9          -2.8790     0.5360     1.7060 nd         1 4C0      -0.611100
     10 C10         -2.4960    -1.8000     0.9480 c3         1 4C0      -0.105700
     11 C11         -1.3150    -2.1950     0.0540 c3         1 4C0      -0.049300
     12 N12         -0.2090    -1.2990     0.2720 ns         1 4C0      -0.519900
     13 C13          0.5440    -0.7850    -0.7100 c          1 4C0       0.671100
     14 O14          0.2860    -0.9170    -1.9010 o          1 4C0      -0.648100
     15 C15          1.7520     0.0060    -0.2540 c3         1 4C0      -0.152400
     16 C16          3.0330    -0.4990    -0.9260 c3         1 4C0      -0.031100
     17 C17          4.2320     0.3060    -0.5090 ca         1 4C0      -0.065300
     18 C18          5.0930    -0.1500     0.4860 ca         1 4C0      -0.126000
     19 C19          6.1830     0.6110     0.8900 ca         1 4C0      -0.134000
     20 C20          6.4260     1.8450     0.3050 ca         1 4C0      -0.143000
     21 C21          5.5730     2.3120    -0.6880 ca         1 4C0      -0.134000
     22 C22          4.4870     1.5470    -1.0890 ca         1 4C0      -0.126000
     23 C23         -0.9260    -3.6890     0.2450 c          1 4C0       0.927600
     24 O24          0.2810    -3.9500     0.3550 o          1 4C0      -0.819800
     25 O25         -1.8830    -4.4870     0.2430 o          1 4C0      -0.819800
     26 H1          -4.0530     4.9760     1.1190 ha         1 4C0       0.116000
     27 H2          -4.4890     4.5100    -1.2530 ha         1 4C0       0.116000
     28 H3          -4.1740     2.2350    -2.1890 ha         1 4C0       0.129000
     29 H4          -3.2810     3.1840     2.6510 ha         1 4C0       0.135000
     30 H10         -2.2480    -1.9530     2.0010 hc         1 4C0       0.079700
     31 H10A        -3.3410    -2.4510     0.7190 hc         1 4C0       0.079700
     32 H11         -1.6130    -2.0820    -0.9910 h1         1 4C0       0.060700
     33 HN12         0.1460    -1.2340     1.2130 hn         1 4C0       0.306500
     34 H15          1.5900     1.0540    -0.5220 hc         1 4C0       0.049700
     35 H15A         1.8660    -0.0270     0.8310 hc         1 4C0       0.049700
     36 H16          3.1840    -1.5500    -0.6690 hc         1 4C0       0.067700
     37 H16A         2.9110    -0.4510    -2.0100 hc         1 4C0       0.067700
     38 H18          4.9110    -1.1150     0.9460 ha         1 4C0       0.134000
     39 H19          6.8430     0.2360     1.6630 ha         1 4C0       0.121000
     40 H20          7.2740     2.4400     0.6190 ha         1 4C0       0.118000
     41 H21          5.7560     3.2730    -1.1520 ha         1 4C0       0.121000
     42 H22          3.8300     1.9200    -1.8670 ha         1 4C0       0.134000
     43 HN7         -3.3610    -0.4100    -1.2890 hn         1 4C0       0.314700
@<TRIPOS>BOND
     1     1     2 ar  
     2     1     4 ar  
     3     1    26 1   
     4     2     3 ar  
     5     2    27 1   
     6     3     6 ar  
     7     3    28 1   
     8     4     5 ar  
     9     4    29 1   
    10     5     6 ar  
    11     5     9 1   
    12     6     7 1   
    13     7     8 1   
    14     7    43 1   
    15     8     9 2   
    16     8    10 1   
    17    10    11 1   
    18    10    30 1   
    19    10    31 1   
    20    11    12 1   
    21    11    23 1   
    22    11    32 1   
    23    12    13 1   
    24    12    33 1   
    25    13    14 2   
    26    13    15 1   
    27    15    16 1   
    28    15    34 1   
    29    15    35 1   
    30    16    17 1   
    31    16    36 1   
    32    16    37 1   
    33    17    18 ar  
    34    17    22 ar  
    35    18    19 ar  
    36    18    38 1   
    37    19    20 ar  
    38    19    39 1   
    39    20    21 ar  
    40    20    40 1   
    41    21    22 ar  
    42    21    41 1   
    43    22    42 1   
    44    23    24 1   
    45    23    25 1   
@<TRIPOS>SUBSTRUCTURE
     1 4C0         1 TEMP              0 ****  ****    0 ROOT
