@<TRIPOS>MOLECULE
4C0
   43    45     1     0     0
SMALL
No Charge or Current Charge


@<TRIPOS>ATOM
      1 C1          -3.7690     4.0240     0.5070 ca         1 4C0      -0.147000
      2 C2          -4.2500     3.6520    -0.7720 ca         1 4C0      -0.116000
      3 C3          -4.1710     2.3090    -1.1980 ca         1 4C0      -0.110000
      4 C4          -3.2050     3.0560     1.3690 ca         1 4C0      -0.061000
      5 C5          -3.1370     1.7280     0.9240 ca         1 4C0       0.076400
      6 C6          -3.6060     1.3850    -0.3110 ca         1 4C0      -0.086200
      7 N7          -3.4020     0.0460    -0.4490 na         1 4C0      -0.307600
      8 C8          -2.7960    -0.3950     0.7240 cc         1 4C0       0.458800
      9 N9          -2.6290     0.6200     1.5980 nd         1 4C0      -0.611100
     10 C10         -2.4230    -1.8270     0.9930 c3         1 4C0      -0.105700
     11 C11         -1.2690    -2.3690     0.1100 c3         1 4C0      -0.049300
     12 N12         -0.0240    -1.5850     0.2990 ns         1 4C0      -0.452900
     13 C13          0.3890    -0.5340    -0.4920 c          1 4C0       0.604100
     14 O14         -0.2410    -0.1600    -1.4720 o          1 4C0      -0.648100
     15 C15          1.6820     0.1500    -0.0370 c3         1 4C0      -0.152400
     16 C16          2.8630    -0.1960    -0.9710 c3         1 4C0      -0.031100
     17 C17          4.1580     0.4710    -0.5250 ca         1 4C0      -0.065300
     18 C18          5.0400    -0.1990     0.3450 ca         1 4C0      -0.108000
     19 C19          6.2330     0.4190     0.7600 ca         1 4C0      -0.116000
     20 C20          6.5490     1.7110     0.3080 ca         1 4C0      -0.125000
     21 C21          5.6720     2.3850    -0.5580 ca         1 4C0      -0.116000
     22 C22          4.4790     1.7670    -0.9720 ca         1 4C0      -0.108000
     23 C23         -1.0050    -3.8800     0.3860 c          1 4C0       0.717000
     24 O24         -0.4470    -4.1930     1.4300 o          1 4C0      -0.714500
     25 O25         -1.3010    -4.6850    -0.4860 o          1 4C0      -0.714500
     26 H1          -3.8340     5.0610     0.8290 ha         1 4C0       0.098000
     27 H2          -4.6830     4.4030    -1.4280 ha         1 4C0       0.098000
     28 H3          -4.5360     2.0060    -2.1770 ha         1 4C0       0.111000
     29 H4          -2.8340     3.3320     2.3530 ha         1 4C0       0.117000
     30 H10         -2.1490    -1.9370     2.0480 hc         1 4C0       0.079700
     31 H10A        -3.3090    -2.4540     0.8420 hc         1 4C0       0.079700
     32 H11         -1.5710    -2.2910    -0.9430 h1         1 4C0       0.060700
     33 HN12         0.5790    -1.8310     1.0770 hn         1 4C0       0.306500
     34 H15          1.5330     1.2360    -0.0560 hc         1 4C0       0.049700
     35 H15A         1.9390    -0.1690     0.9800 hc         1 4C0       0.049700
     36 H16          2.9910    -1.2860    -1.0030 hc         1 4C0       0.067700
     37 H16A         2.6160     0.1100    -1.9950 hc         1 4C0       0.067700
     38 H18          4.8020    -1.1990     0.7010 ha         1 4C0       0.116000
     39 H19          6.9110    -0.1040     1.4310 ha         1 4C0       0.103000
     40 H20          7.4720     2.1890     0.6290 ha         1 4C0       0.100000
     41 H21          5.9150     3.3860    -0.9070 ha         1 4C0       0.103000
     42 H22          3.8040     2.2970    -1.6410 ha         1 4C0       0.116000
     43 HN7         -3.6200    -0.5260    -1.2530 hn         1 4C0       0.365000
@<TRIPOS>BOND
     1     1     2 ar  
     2     1     4 ar  
     3     1    26 1   
     4     2     3 ar  
     5     2    27 1   
     6     3     6 ar  
     7     3    28 1   
     8     4     5 ar  
     9     4    29 1   
    10     5     6 ar  
    11     5     9 1   
    12     6     7 1   
    13     7     8 1   
    14     7    43 1   
    15     8     9 2   
    16     8    10 1   
    17    10    11 1   
    18    10    30 1   
    19    10    31 1   
    20    11    12 1   
    21    11    23 1   
    22    11    32 1   
    23    12    13 1   
    24    12    33 1   
    25    13    14 2   
    26    13    15 1   
    27    15    16 1   
    28    15    34 1   
    29    15    35 1   
    30    16    17 1   
    31    16    36 1   
    32    16    37 1   
    33    17    18 ar  
    34    17    22 ar  
    35    18    19 ar  
    36    18    38 1   
    37    19    20 ar  
    38    19    39 1   
    39    20    21 ar  
    40    20    40 1   
    41    21    22 ar  
    42    21    41 1   
    43    22    42 1   
    44    23    24 1   
    45    23    25 1   
@<TRIPOS>SUBSTRUCTURE
     1 4C0         1 TEMP              0 ****  ****    0 ROOT
