@<TRIPOS>MOLECULE
4C1
   87    90     1     0     0
SMALL
bcc


@<TRIPOS>ATOM
      1 CAY         -4.2250    -0.4510    -1.7610 c3         1 4C1       0.117700
      2 OAX         -4.1850    -1.4500    -0.7620 os         1 4C1      -0.306900
      3 CAS         -3.7850    -1.0950     0.4690 ca         1 4C1       0.080100
      4 CAR         -3.5560     0.2040     0.8790 ca         1 4C1      -0.092000
      5 CAT         -3.5930    -2.1610     1.3800 ca         1 4C1       0.165100
      6 OAW         -3.8740    -3.3780     0.9070 os         1 4C1      -0.298900
      7 CAZ         -3.6630    -4.4980     1.7480 c3         1 4C1       0.118700
      8 CAU         -3.1330    -1.8940     2.6600 ca         1 4C1      -0.217000
      9 CAV         -2.8800    -0.5880     3.0660 ca         1 4C1      -0.010000
     10 CAQ         -3.1030     0.4440     2.1790 ca         1 4C1      -0.307500
     11 SAN         -2.8080     2.1080     2.6780 sy         1 4C1       1.290200
     12 OAO         -3.8050     2.9450     2.0340 o          1 4C1      -0.607300
     13 OAP         -2.6420     2.1470     4.1210 o          1 4C1      -0.607300
     14 NAM         -1.3320     2.5670     2.0570 nu         1 4C1      -0.662500
     15 CAB         -1.1590     2.5720     0.6520 ca         1 4C1       0.059600
     16 CAA         -1.6700     3.6380    -0.0890 ca         1 4C1      -0.063000
     17 CAF         -1.5000     3.6130    -1.4540 ca         1 4C1      -0.026400
     18 NAI         -1.8830     4.4900    -2.4470 n          1 4C1      -0.353000
     19 CAK         -2.6240     5.7070    -2.2400 c3         1 4C1       0.103300
     20 CAH         -1.4510     4.0300    -3.6660 c          1 4C1       0.805500
     21 OAJ         -1.6160     4.5560    -4.7510 o          1 4C1      -0.633500
     22 NAG         -0.7850     2.8460    -3.4180 n          1 4C1      -0.360000
     23 CAL         -0.1810     2.0160    -4.4290 c3         1 4C1       0.103300
     24 CAE         -0.8080     2.5710    -2.0740 ca         1 4C1       0.037600
     25 CAD         -0.2730     1.5190    -1.3570 ca         1 4C1      -0.201000
     26 CAC         -0.4750     1.5240     0.0210 ca         1 4C1       0.125100
     27 OBA         -0.0030     0.5520     0.8470 os         1 4C1      -0.267200
     28 CBB          0.6400    -0.5350     0.3100 ca         1 4C1       0.168100
     29 CBC          2.0140    -0.6050     0.4530 ca         1 4C1      -0.263000
     30 CBG         -0.1060    -1.5150    -0.3230 ca         1 4C1      -0.279000
     31 CBF          0.5690    -2.6190    -0.8440 ca         1 4C1       0.197100
     32 OBH         -0.0410    -3.6240    -1.4930 os         1 4C1      -0.321900
     33 CBJ         -1.4230    -3.4950    -1.7990 c3         1 4C1       0.134400
     34 CBK         -1.8660    -4.7060    -2.5910 c3         1 4C1      -0.078400
     35 CBL         -3.3370    -4.5870    -2.9670 c3         1 4C1      -0.092100
     36 CBE          1.9500    -2.7250    -0.7100 ca         1 4C1      -0.215000
     37 CBD          2.6700    -1.7250    -0.0640 ca         1 4C1       0.196100
     38 OBI          3.9980    -1.9070     0.0050 os         1 4C1      -0.321900
     39 CBM          4.8060    -0.9130     0.6200 c3         1 4C1       0.142400
     40 CBN          6.2550    -1.3210     0.4670 c3         1 4C1      -0.083400
     41 CBO          7.1860    -0.3280     1.1530 c3         1 4C1      -0.076400
     42 CBP          8.6470    -0.6990     0.9370 c3         1 4C1       0.166800
     43 NBQ          9.5830     0.2630     1.4910 n3         1 4C1      -0.712600
     44 CBR          9.5640     0.2810     2.9380 c3         1 4C1       0.148600
     45 CBS         10.9240     0.0130     1.0080 c3         1 4C1       0.148600
     46 H1          -4.4820    -0.9530    -2.6900 h1         1 4C1       0.044033
     47 H2          -4.9800     0.3110    -1.5520 h1         1 4C1       0.044033
     48 H3          -3.2530     0.0380    -1.8800 h1         1 4C1       0.044033
     49 H4          -3.7310     1.0310     0.2050 ha         1 4C1       0.158000
     50 H5          -3.9410    -5.3730     1.1660 h1         1 4C1       0.047033
     51 H6          -2.6160    -4.5890     2.0470 h1         1 4C1       0.047033
     52 H7          -4.2870    -4.4540     2.6440 h1         1 4C1       0.047033
     53 H8          -2.9740    -2.6940     3.3690 ha         1 4C1       0.143000
     54 H9          -2.5270    -0.4030     4.0700 ha         1 4C1       0.158000
     55 H10         -0.5650     2.1710     2.5910 hn         1 4C1       0.443800
     56 H11         -2.1730     4.4520     0.4130 ha         1 4C1       0.174000
     57 H12         -2.0640     6.4000    -1.6130 h1         1 4C1       0.055033
     58 H13         -2.8080     6.1780    -3.2010 h1         1 4C1       0.055033
     59 H14         -3.5830     5.4970    -1.7660 h1         1 4C1       0.055033
     60 H15         -0.1980     2.5420    -5.3790 h1         1 4C1       0.053033
     61 H16          0.8550     1.8000    -4.1710 h1         1 4C1       0.053033
     62 H17         -0.7220     1.0770    -4.5390 h1         1 4C1       0.053033
     63 H18          0.2660     0.7240    -1.8520 ha         1 4C1       0.161000
     64 H19          2.5350     0.1970     0.9560 ha         1 4C1       0.154000
     65 H20         -1.1770    -1.4000    -0.3980 ha         1 4C1       0.156000
     66 H21         -2.0160    -3.4230    -0.8820 h1         1 4C1       0.043200
     67 H22         -1.5930    -2.5790    -2.3770 h1         1 4C1       0.043200
     68 H23         -1.2560    -4.8010    -3.4930 hc         1 4C1       0.051700
     69 H24         -1.7040    -5.6090    -1.9970 hc         1 4C1       0.051700
     70 H25         -3.6830    -5.4860    -3.4770 hc         1 4C1       0.039367
     71 H26         -3.9610    -4.4420    -2.0840 hc         1 4C1       0.039367
     72 H27         -3.5080    -3.7420    -3.6350 hc         1 4C1       0.039367
     73 H28          2.4680    -3.5840    -1.1190 ha         1 4C1       0.164000
     74 H29          4.6380     0.0600     0.1440 h1         1 4C1       0.038200
     75 H30          4.5420    -0.8140     1.6790 h1         1 4C1       0.038200
     76 H31          6.4010    -2.3180     0.8940 hc         1 4C1       0.055700
     77 H32          6.5030    -1.3880    -0.5960 hc         1 4C1       0.055700
     78 H33          7.0170     0.6790     0.7590 hc         1 4C1       0.048700
     79 H34          6.9460    -0.2910     2.2190 hc         1 4C1       0.048700
     80 H35          8.8320    -1.7140     1.3330 h1         1 4C1       0.030700
     81 H36          8.8260    -0.7550    -0.1410 h1         1 4C1       0.030700
     82 H38          9.8340    -0.6900     3.3850 h1         1 4C1       0.030533
     83 H39         10.2710     1.0250     3.3080 h1         1 4C1       0.030533
     84 H40          8.5790     0.5560     3.3140 h1         1 4C1       0.030533
     85 H41         10.9530     0.0720    -0.0810 h1         1 4C1       0.030533
     86 H42         11.6100     0.7650     1.4000 h1         1 4C1       0.030533
     87 H43         11.3160    -0.9760     1.2990 h1         1 4C1       0.030533
@<TRIPOS>BOND
     1     1     2 1   
     2     1    46 1   
     3     1    47 1   
     4     1    48 1   
     5     2     3 1   
     6     3     4 ar  
     7     3     5 ar  
     8     4    10 ar  
     9     4    49 1   
    10     5     6 1   
    11     5     8 ar  
    12     6     7 1   
    13     7    50 1   
    14     7    51 1   
    15     7    52 1   
    16     8     9 ar  
    17     8    53 1   
    18     9    10 ar  
    19     9    54 1   
    20    10    11 1   
    21    11    12 2   
    22    11    13 2   
    23    11    14 1   
    24    14    15 1   
    25    14    55 1   
    26    15    16 ar  
    27    15    26 ar  
    28    16    17 ar  
    29    16    56 1   
    30    17    18 1   
    31    17    24 ar  
    32    18    19 1   
    33    18    20 1   
    34    19    57 1   
    35    19    58 1   
    36    19    59 1   
    37    20    21 2   
    38    20    22 1   
    39    22    23 1   
    40    22    24 1   
    41    23    60 1   
    42    23    61 1   
    43    23    62 1   
    44    24    25 ar  
    45    25    26 ar  
    46    25    63 1   
    47    26    27 1   
    48    27    28 1   
    49    28    29 ar  
    50    28    30 ar  
    51    29    37 ar  
    52    29    64 1   
    53    30    31 ar  
    54    30    65 1   
    55    31    32 1   
    56    31    36 ar  
    57    32    33 1   
    58    33    34 1   
    59    33    66 1   
    60    33    67 1   
    61    34    35 1   
    62    34    68 1   
    63    34    69 1   
    64    35    70 1   
    65    35    71 1   
    66    35    72 1   
    67    36    37 ar  
    68    36    73 1   
    69    37    38 1   
    70    38    39 1   
    71    39    40 1   
    72    39    74 1   
    73    39    75 1   
    74    40    41 1   
    75    40    76 1   
    76    40    77 1   
    77    41    42 1   
    78    41    78 1   
    79    41    79 1   
    80    42    43 1   
    81    42    80 1   
    82    42    81 1   
    83    43    44 1   
    84    43    45 1   
    85    44    82 1   
    86    44    83 1   
    87    44    84 1   
    88    45    85 1   
    89    45    86 1   
    90    45    87 1   
@<TRIPOS>SUBSTRUCTURE
     1 4C1         1 TEMP              0 ****  ****    0 ROOT
