@<TRIPOS>MOLECULE
4C1
   87    90     1     0     0
SMALL
No Charge or Current Charge


@<TRIPOS>ATOM
      1 CAY         -4.5500    -0.3350    -0.2970 c3         1 4C1       0.140900
      2 OAX         -3.6860    -1.3840     0.1770 os         1 4C1      -0.330100
      3 CAS         -2.4720    -1.1260     0.7960 ca         1 4C1       0.080100
      4 CAR         -2.0690     0.1880     1.1230 ca         1 4C1      -0.074000
      5 CAT         -1.6170    -2.2130     1.0980 ca         1 4C1       0.165100
      6 OAW         -2.0400    -3.4950     0.7890 os         1 4C1      -0.322100
      7 CAZ         -1.2070    -4.6500     0.9840 c3         1 4C1       0.141900
      8 CAU         -0.3610    -1.9700     1.7000 ca         1 4C1      -0.199000
      9 CAV          0.0420    -0.6600     2.0020 ca         1 4C1       0.008000
     10 CAQ         -0.8160     0.4210     1.7270 ca         1 4C1      -0.307500
     11 SAN         -0.3100     2.1010     2.1220 sy         1 4C1       1.148600
     12 OAO         -1.4670     2.8880     2.5570 o          1 4C1      -0.536500
     13 OAP          0.9560     2.0900     2.8570 o          1 4C1      -0.536500
     14 NAM          0.1120     2.7700     0.6440 nu         1 4C1      -0.856100
     15 CAB         -0.6670     2.7920    -0.5200 ca         1 4C1       0.198000
     16 CAA         -1.9490     3.3870    -0.5250 ca         1 4C1      -0.045000
     17 CAF         -2.7100     3.3270    -1.7010 ca         1 4C1      -0.026400
     18 NAI         -3.8820     4.0550    -2.0520 n          1 4C1      -0.286000
     19 CAK         -4.8830     4.5420    -1.0880 c3         1 4C1       0.103300
     20 CAH         -4.1070     3.9770    -3.4340 c          1 4C1       0.596000
     21 OAJ         -5.0630     4.4180    -4.0570 o          1 4C1      -0.558000
     22 NAG         -3.0260     3.2410    -3.9400 n          1 4C1      -0.293000
     23 CAL         -2.9660     2.7140    -5.3140 c3         1 4C1       0.103300
     24 CAE         -2.1790     2.8200    -2.8800 ca         1 4C1       0.037600
     25 CAD         -0.8680     2.3360    -2.9370 ca         1 4C1      -0.183000
     26 CAC         -0.1390     2.2620    -1.7330 ca         1 4C1       0.125100
     27 OBA          1.1190     1.7020    -1.7440 os         1 4C1      -0.267200
     28 CBB          1.3120     0.3690    -1.4680 ca         1 4C1       0.168100
     29 CBC          2.4740    -0.0130    -0.7850 ca         1 4C1      -0.245000
     30 CBG          0.3770    -0.6000    -1.8700 ca         1 4C1      -0.261000
     31 CBF          0.6130    -1.9600    -1.5950 ca         1 4C1       0.197100
     32 OBH         -0.2610    -2.9550    -1.9780 os         1 4C1      -0.345100
     33 CBJ         -1.5200    -2.6620    -2.6050 c3         1 4C1       0.157600
     34 CBK         -2.2590    -3.9940    -2.8310 c3         1 4C1      -0.078400
     35 CBL         -3.6560    -3.8050    -3.4530 c3         1 4C1      -0.092100
     36 CBE          1.7750    -2.3370    -0.9090 ca         1 4C1      -0.197000
     37 CBD          2.7030    -1.3730    -0.4950 ca         1 4C1       0.196100
     38 OBI          3.8190    -1.8080     0.1890 os         1 4C1      -0.345100
     39 CBM          4.8110    -0.8990     0.6900 c3         1 4C1       0.165600
     40 CBN          5.8860    -1.7340     1.4120 c3         1 4C1      -0.083400
     41 CBO          7.0210    -0.8710     2.0070 c3         1 4C1      -0.076400
     42 CBP          8.0980    -1.7130     2.7320 c3         1 4C1       0.166800
     43 NBQ          9.2850    -0.9470     3.1910 n3         1 4C1      -0.712600
     44 CBR          8.9730     0.1050     4.1880 c3         1 4C1       0.148600
     45 CBS         10.3730    -1.8370     3.6540 c3         1 4C1       0.148600
     46 H1          -5.4320    -0.7630    -0.7890 h1         1 4C1       0.044033
     47 H2          -4.8960     0.2930     0.5340 h1         1 4C1       0.044033
     48 H3          -4.0280     0.2990    -1.0260 h1         1 4C1       0.044033
     49 H4          -2.7170     1.0340     0.9140 ha         1 4C1       0.140000
     50 H5          -1.7310    -5.5560     0.6540 h1         1 4C1       0.047033
     51 H6          -0.2790    -4.5640     0.4040 h1         1 4C1       0.047033
     52 H7          -0.9510    -4.7730     2.0440 h1         1 4C1       0.047033
     53 H8           0.3200    -2.7830     1.9330 ha         1 4C1       0.125000
     54 H9           1.0180    -0.4950     2.4570 ha         1 4C1       0.140000
     55 H10          1.0510     2.4230     0.5020 hn         1 4C1       0.499000
     56 H11         -2.3330     3.8910     0.3550 ha         1 4C1       0.156000
     57 H12         -4.6930     5.5990    -0.8650 h1         1 4C1       0.055033
     58 H13         -5.8930     4.4380    -1.5060 h1         1 4C1       0.055033
     59 H14         -4.8230     3.9610    -0.1600 h1         1 4C1       0.055033
     60 H15         -3.6100     3.3050    -5.9760 h1         1 4C1       0.053033
     61 H16         -1.9350     2.7660    -5.6850 h1         1 4C1       0.053033
     62 H17         -3.3010     1.6700    -5.3210 h1         1 4C1       0.053033
     63 H18         -0.4260     2.0130    -3.8750 ha         1 4C1       0.143000
     64 H19          3.1800     0.7550    -0.4900 ha         1 4C1       0.136000
     65 H20         -0.5140    -0.2910    -2.4040 ha         1 4C1       0.138000
     66 H21         -2.1290    -2.0120    -1.9640 h1         1 4C1       0.043200
     67 H22         -1.3680    -2.1590    -3.5700 h1         1 4C1       0.043200
     68 H23         -1.6560    -4.6360    -3.4850 hc         1 4C1       0.051700
     69 H24         -2.3650    -4.5160    -1.8720 hc         1 4C1       0.051700
     70 H25         -4.1460    -4.7760    -3.5960 hc         1 4C1       0.039367
     71 H26         -4.2910    -3.1930    -2.8010 hc         1 4C1       0.039367
     72 H27         -3.5830    -3.3110    -4.4300 hc         1 4C1       0.039367
     73 H28          1.9550    -3.3850    -0.6920 ha         1 4C1       0.146000
     74 H29          5.2740    -0.3360    -0.1310 h1         1 4C1       0.038200
     75 H30          4.3630    -0.1880     1.3980 h1         1 4C1       0.038200
     76 H31          5.4100    -2.3110     2.2150 hc         1 4C1       0.055700
     77 H32          6.3120    -2.4550     0.7030 hc         1 4C1       0.055700
     78 H33          7.4980    -0.2970     1.2030 hc         1 4C1       0.048700
     79 H34          6.5830    -0.1490     2.7060 hc         1 4C1       0.048700
     80 H35          7.6290    -2.2230     3.5850 h1         1 4C1       0.030700
     81 H36          8.4270    -2.4950     2.0350 h1         1 4C1       0.030700
     82 H38          8.5110    -0.3290     5.0850 h1         1 4C1       0.030533
     83 H39          9.8880     0.6300     4.4950 h1         1 4C1       0.030533
     84 H40          8.2890     0.8570     3.7750 h1         1 4C1       0.030533
     85 H41         10.6500    -2.5540     2.8700 h1         1 4C1       0.030533
     86 H42         11.2690    -1.2560     3.9090 h1         1 4C1       0.030533
     87 H43         10.0650    -2.4030     4.5440 h1         1 4C1       0.030533
@<TRIPOS>BOND
     1     1     2 1   
     2     1    46 1   
     3     1    47 1   
     4     1    48 1   
     5     2     3 1   
     6     3     4 ar  
     7     3     5 ar  
     8     4    10 ar  
     9     4    49 1   
    10     5     6 1   
    11     5     8 ar  
    12     6     7 1   
    13     7    50 1   
    14     7    51 1   
    15     7    52 1   
    16     8     9 ar  
    17     8    53 1   
    18     9    10 ar  
    19     9    54 1   
    20    10    11 1   
    21    11    12 2   
    22    11    13 2   
    23    11    14 1   
    24    14    15 1   
    25    14    55 1   
    26    15    16 ar  
    27    15    26 ar  
    28    16    17 ar  
    29    16    56 1   
    30    17    18 1   
    31    17    24 ar  
    32    18    19 1   
    33    18    20 1   
    34    19    57 1   
    35    19    58 1   
    36    19    59 1   
    37    20    21 2   
    38    20    22 1   
    39    22    23 1   
    40    22    24 1   
    41    23    60 1   
    42    23    61 1   
    43    23    62 1   
    44    24    25 ar  
    45    25    26 ar  
    46    25    63 1   
    47    26    27 1   
    48    27    28 1   
    49    28    29 ar  
    50    28    30 ar  
    51    29    37 ar  
    52    29    64 1   
    53    30    31 ar  
    54    30    65 1   
    55    31    32 1   
    56    31    36 ar  
    57    32    33 1   
    58    33    34 1   
    59    33    66 1   
    60    33    67 1   
    61    34    35 1   
    62    34    68 1   
    63    34    69 1   
    64    35    70 1   
    65    35    71 1   
    66    35    72 1   
    67    36    37 ar  
    68    36    73 1   
    69    37    38 1   
    70    38    39 1   
    71    39    40 1   
    72    39    74 1   
    73    39    75 1   
    74    40    41 1   
    75    40    76 1   
    76    40    77 1   
    77    41    42 1   
    78    41    78 1   
    79    41    79 1   
    80    42    43 1   
    81    42    80 1   
    82    42    81 1   
    83    43    44 1   
    84    43    45 1   
    85    44    82 1   
    86    44    83 1   
    87    44    84 1   
    88    45    85 1   
    89    45    86 1   
    90    45    87 1   
@<TRIPOS>SUBSTRUCTURE
     1 4C1         1 TEMP              0 ****  ****    0 ROOT
