@<TRIPOS>MOLECULE
4C2
   58    61     1     0     0
SMALL
abcg2


@<TRIPOS>ATOM
      1 C1         -87.0060   -26.7130   -22.4820 cc         1 4C2      -0.073200
      2 C2         -87.0450   -24.2100   -20.5680 cc         1 4C2      -0.474500
      3 C3         -87.8260   -23.4730   -21.4170 cd         1 4C2       0.332300
      4 O4         -89.5610   -28.7380   -22.8190 o          1 4C2      -0.467100
      5 C7         -87.6580   -27.2920   -23.5950 cd         1 4C2       0.052800
      6 C8         -88.4420   -28.0500   -25.7650 c6         1 4C2       0.220800
      7 C9         -89.3030   -27.1230   -26.6170 c6         1 4C2      -0.100900
      8 C10        -88.4410   -26.1410   -27.4130 c6         1 4C2       0.172500
      9 C11        -89.9680   -25.7140   -29.3170 c3         1 4C2       0.200100
     10 C12        -89.0530   -26.3170   -30.3610 ca         1 4C2      -0.099300
     11 C13        -88.9560   -27.6960   -30.5270 ca         1 4C2      -0.112000
     12 C14        -88.0660   -28.2470   -31.4430 ca         1 4C2      -0.057500
     13 C15        -87.2620   -27.4100   -32.2070 ca         1 4C2      -0.187300
     14 C16        -86.2850   -27.9660   -33.1980 c3         1 4C2       0.343300
     15 C19        -87.5020   -25.3890   -26.4740 c6         1 4C2      -0.100900
     16 C20        -86.6650   -26.3550   -25.6430 c6         1 4C2       0.220800
     17 C21        -88.6180   -27.9910   -22.6790 c          1 4C2       0.478300
     18 C          -87.9010   -27.3370   -21.5080 c          1 4C2       0.497300
     19 O          -88.0460   -27.3330   -20.2990 o          1 4C2      -0.472100
     20 N          -85.9420   -25.8690   -22.3580 nu         1 4C2      -0.752100
     21 S          -85.5570   -24.9950   -20.9860 sy         1 4C2       1.263600
     22 O2         -84.5850   -24.0470   -21.4650 o          1 4C2      -0.536500
     23 O3         -85.2060   -25.8920   -19.9240 o          1 4C2      -0.536500
     24 C5         -87.7230   -24.1950   -19.3070 cc         1 4C2       0.390300
     25 C6         -87.3430   -24.8290   -18.0180 c3         1 4C2      -0.145400
     26 N1         -88.8200   -23.4940   -19.4010 nd         1 4C2      -0.357300
     27 O1         -88.8890   -23.0400   -20.7390 os         1 4C2      -0.083700
     28 C4         -87.7330   -23.1320   -22.8520 c3         1 4C2      -0.164400
     29 N2         -87.5420   -27.2680   -24.9040 nh         1 4C2      -0.635400
     30 N3         -89.2720   -25.1790   -28.1400 n7         1 4C2      -0.858400
     31 C18        -88.2400   -25.4900   -31.1410 ca         1 4C2      -0.112000
     32 C17        -87.3510   -26.0250   -32.0580 ca         1 4C2      -0.057500
     33 F2         -86.2860   -29.3130   -33.2420 f          1 4C2      -0.112000
     34 F1         -85.0100   -27.5880   -32.9260 f          1 4C2      -0.112000
     35 F          -86.5350   -27.5370   -34.4620 f          1 4C2      -0.112000
     36 H1         -89.0540   -28.6920   -25.1390 h1         1 4C2       0.063200
     37 H2         -87.8160   -28.6820   -26.4010 h1         1 4C2       0.063200
     38 H3         -89.9830   -26.5600   -25.9720 hc         1 4C2       0.060700
     39 H4         -89.9090   -27.7370   -27.2850 hc         1 4C2       0.060700
     40 H5         -87.8130   -26.7290   -28.1010 h1         1 4C2       0.031700
     41 H6         -90.5320   -24.8910   -29.7590 h1         1 4C2       0.067200
     42 H7         -90.6910   -26.4640   -28.9920 h1         1 4C2       0.067200
     43 H8         -89.5780   -28.3510   -29.9290 ha         1 4C2       0.120000
     44 H9         -87.9990   -29.3200   -31.5560 ha         1 4C2       0.133500
     45 H10        -86.8300   -24.7470   -27.0500 hc         1 4C2       0.060700
     46 H11        -88.0850   -24.7480   -25.8070 hc         1 4C2       0.060700
     47 H12        -86.0220   -26.9590   -26.2880 h1         1 4C2       0.063200
     48 H13        -86.0280   -25.8100   -24.9570 h1         1 4C2       0.063200
     49 H14        -85.4370   -25.5510   -23.1740 hn         1 4C2       0.505000
     50 H15        -88.0800   -24.5830   -17.2560 hc         1 4C2       0.075367
     51 H16        -87.2910   -25.9100   -18.1420 hc         1 4C2       0.075367
     52 H17        -86.3610   -24.4810   -17.6970 hc         1 4C2       0.075367
     53 H18        -88.2780   -22.2110   -23.0540 hc         1 4C2       0.077367
     54 H19        -86.6930   -23.0140   -23.1520 hc         1 4C2       0.077367
     55 H20        -88.1730   -23.9330   -23.4520 hc         1 4C2       0.077367
     56 H21        -88.6900   -24.4010   -28.4340 hn         1 4C2       0.414000
     57 H23        -88.3040   -24.4150   -31.0260 ha         1 4C2       0.120000
     58 H24        -86.7290   -25.3720   -32.6570 ha         1 4C2       0.133500
@<TRIPOS>BOND
     1     1     5 2   
     2     1    18 1   
     3     1    20 1   
     4     2     3 2   
     5     2    21 1   
     6     2    24 1   
     7     3    27 1   
     8     3    28 1   
     9     4    17 2   
    10     5    17 1   
    11     5    29 1   
    12     6     7 1   
    13     6    29 1   
    14     6    36 1   
    15     6    37 1   
    16     7     8 1   
    17     7    38 1   
    18     7    39 1   
    19     8    15 1   
    20     8    30 1   
    21     8    40 1   
    22     9    10 1   
    23     9    30 1   
    24     9    41 1   
    25     9    42 1   
    26    10    11 ar  
    27    10    31 ar  
    28    11    12 ar  
    29    11    43 1   
    30    12    13 ar  
    31    12    44 1   
    32    13    14 1   
    33    13    32 ar  
    34    14    33 1   
    35    14    34 1   
    36    14    35 1   
    37    15    16 1   
    38    15    45 1   
    39    15    46 1   
    40    16    29 1   
    41    16    47 1   
    42    16    48 1   
    43    17    18 1   
    44    18    19 2   
    45    20    21 1   
    46    20    49 1   
    47    21    22 2   
    48    21    23 2   
    49    24    25 1   
    50    24    26 2   
    51    25    50 1   
    52    25    51 1   
    53    25    52 1   
    54    26    27 1   
    55    28    53 1   
    56    28    54 1   
    57    28    55 1   
    58    30    56 1   
    59    31    32 ar  
    60    31    57 1   
    61    32    58 1   
@<TRIPOS>SUBSTRUCTURE
     1 4C2         1 TEMP              0 ****  ****    0 ROOT
