@<TRIPOS>MOLECULE
4C2
   58    61     1     0     0
SMALL
No Charge or Current Charge


@<TRIPOS>ATOM
      1 C1         -87.3190   -26.5900   -22.4940 cc         1 4C2      -0.073200
      2 C2         -86.9710   -24.0570   -20.3680 cc         1 4C2      -0.474500
      3 C3         -87.5090   -23.1070   -21.1700 cd         1 4C2       0.332300
      4 O4         -89.9590   -28.5490   -22.9690 o          1 4C2      -0.467100
      5 C7         -87.8200   -27.3200   -23.5670 cd         1 4C2       0.052800
      6 C8         -88.1320   -28.3530   -25.8340 c6         1 4C2       0.220800
      7 C9         -89.1300   -27.5090   -26.6600 c6         1 4C2      -0.100900
      8 C10        -88.4000   -26.3620   -27.4070 c6         1 4C2       0.172500
      9 C11        -90.0730   -26.0660   -29.2980 c3         1 4C2       0.200100
     10 C12        -89.1150   -26.4940   -30.4040 ca         1 4C2      -0.099300
     11 C13        -88.7920   -27.8530   -30.5840 ca         1 4C2      -0.112000
     12 C14        -87.9030   -28.2460   -31.5990 ca         1 4C2      -0.057500
     13 C15        -87.3260   -27.2850   -32.4580 ca         1 4C2      -0.187300
     14 C16        -86.3470   -27.7120   -33.5580 c3         1 4C2       0.343300
     15 C19        -87.5820   -25.5160   -26.4020 c6         1 4C2      -0.100900
     16 C20        -86.6150   -26.4030   -25.5850 c6         1 4C2       0.220800
     17 C21        -88.9820   -27.8230   -22.7770 c          1 4C2       0.478300
     18 C          -88.4300   -27.0060   -21.5940 c          1 4C2       0.497300
     19 O          -88.7800   -26.8070   -20.4320 o          1 4C2      -0.472100
     20 N          -86.2030   -25.7750   -22.2640 nu         1 4C2      -0.752100
     21 S          -85.6560   -25.1350   -20.8040 sy         1 4C2       1.263600
     22 O2         -84.4910   -24.3430   -21.1960 o          1 4C2      -0.536500
     23 O3         -85.5760   -26.2650   -19.8770 o          1 4C2      -0.536500
     24 C5         -87.6910   -23.9410   -19.1690 cc         1 4C2       0.390300
     25 C6         -87.4270   -24.7670   -17.9420 c3         1 4C2      -0.145400
     26 N1         -88.6230   -23.0040   -19.1930 nd         1 4C2      -0.357300
     27 O1         -88.5140   -22.4520   -20.5100 os         1 4C2      -0.083700
     28 C4         -87.1960   -22.6980   -22.5820 c3         1 4C2      -0.164400
     29 N2         -87.3740   -27.4820   -24.8960 nh         1 4C2      -0.635400
     30 N3         -89.3410   -25.4910   -28.1460 n7         1 4C2      -0.858400
     31 C18        -88.5350   -25.5330   -31.2540 ca         1 4C2      -0.112000
     32 C17        -87.6460   -25.9230   -32.2700 ca         1 4C2      -0.057500
     33 F2         -86.6100   -28.9520   -34.0290 f          1 4C2      -0.112000
     34 F1         -85.0740   -27.7240   -33.1040 f          1 4C2      -0.112000
     35 F          -86.3780   -26.8810   -34.6260 f          1 4C2      -0.112000
     36 H1         -88.6750   -29.1390   -25.2900 h1         1 4C2       0.063200
     37 H2         -87.4350   -28.8620   -26.5160 h1         1 4C2       0.063200
     38 H3         -89.8990   -27.0940   -25.9940 hc         1 4C2       0.060700
     39 H4         -89.6460   -28.1660   -27.3700 hc         1 4C2       0.060700
     40 H5         -87.6910   -26.8060   -28.1220 h1         1 4C2       0.031700
     41 H6         -90.7690   -25.3220   -29.7100 h1         1 4C2       0.067200
     42 H7         -90.6860   -26.9250   -28.9890 h1         1 4C2       0.067200
     43 H8         -89.2260   -28.6080   -29.9330 ha         1 4C2       0.120000
     44 H9         -87.6630   -29.3010   -31.7120 ha         1 4C2       0.133500
     45 H10        -87.0080   -24.7460   -26.9350 hc         1 4C2       0.060700
     46 H11        -88.2590   -24.9890   -25.7160 hc         1 4C2       0.060700
     47 H12        -85.8670   -26.8450   -26.2610 h1         1 4C2       0.063200
     48 H13        -86.0690   -25.7740   -24.8720 h1         1 4C2       0.063200
     49 H14        -85.3820   -25.9120   -22.8400 hn         1 4C2       0.505000
     50 H15        -88.0430   -24.4290   -17.1010 hc         1 4C2       0.075367
     51 H16        -87.6600   -25.8220   -18.1220 hc         1 4C2       0.075367
     52 H17        -86.3780   -24.6900   -17.6380 hc         1 4C2       0.075367
     53 H18        -87.6930   -21.7550   -22.8380 hc         1 4C2       0.077367
     54 H19        -86.1190   -22.5540   -22.7220 hc         1 4C2       0.077367
     55 H20        -87.5360   -23.4590   -23.2920 hc         1 4C2       0.077367
     56 H21        -88.8110   -24.6890   -28.5040 hn         1 4C2       0.414000
     57 H23        -88.7720   -24.4790   -31.1250 ha         1 4C2       0.120000
     58 H24        -87.2060   -25.1600   -32.9090 ha         1 4C2       0.133500
@<TRIPOS>BOND
     1     1     5 2   
     2     1    18 1   
     3     1    20 1   
     4     2     3 2   
     5     2    21 1   
     6     2    24 1   
     7     3    27 1   
     8     3    28 1   
     9     4    17 2   
    10     5    17 1   
    11     5    29 1   
    12     6     7 1   
    13     6    29 1   
    14     6    36 1   
    15     6    37 1   
    16     7     8 1   
    17     7    38 1   
    18     7    39 1   
    19     8    15 1   
    20     8    30 1   
    21     8    40 1   
    22     9    10 1   
    23     9    30 1   
    24     9    41 1   
    25     9    42 1   
    26    10    11 ar  
    27    10    31 ar  
    28    11    12 ar  
    29    11    43 1   
    30    12    13 ar  
    31    12    44 1   
    32    13    14 1   
    33    13    32 ar  
    34    14    33 1   
    35    14    34 1   
    36    14    35 1   
    37    15    16 1   
    38    15    45 1   
    39    15    46 1   
    40    16    29 1   
    41    16    47 1   
    42    16    48 1   
    43    17    18 1   
    44    18    19 2   
    45    20    21 1   
    46    20    49 1   
    47    21    22 2   
    48    21    23 2   
    49    24    25 1   
    50    24    26 2   
    51    25    50 1   
    52    25    51 1   
    53    25    52 1   
    54    26    27 1   
    55    28    53 1   
    56    28    54 1   
    57    28    55 1   
    58    30    56 1   
    59    31    32 ar  
    60    31    57 1   
    61    32    58 1   
@<TRIPOS>SUBSTRUCTURE
     1 4C2         1 TEMP              0 ****  ****    0 ROOT
