@<TRIPOS>MOLECULE
4C4
   64    64     1     0     0
SMALL
No Charge or Current Charge


@<TRIPOS>ATOM
      1 C1           1.0990     1.3290    -0.4670 cc         1 4C4      -0.400400
      2 C2           2.4090     1.1040    -1.0690 c          1 4C4       0.622500
      3 C3           3.5300     0.6300    -0.1620 ce         1 4C4      -0.183400
      4 O4          -9.0170    -2.5020     0.5440 o          1 4C4      -0.524000
      5 O5          -0.8470     0.4040     0.5550 os         1 4C4      -0.335200
      6 C7           7.1900    -0.2660    -0.4640 c2         1 4C4      -0.076400
      7 C8           7.5780     0.0670    -1.8990 c3         1 4C4      -0.062900
      8 C9           8.3440    -0.8200     0.3610 c3         1 4C4      -0.048200
      9 C10          8.6690    -2.2900     0.0150 c3         1 4C4      -0.074400
     10 C11          9.8140    -2.8760     0.8710 c3         1 4C4      -0.076400
     11 C12         10.1370    -4.3420     0.5240 c3         1 4C4      -0.089100
     12 C13          0.6690     2.5870    -0.1790 cd         1 4C4       0.282100
     13 C14         -0.5860     2.7340     0.4760 cd         1 4C4      -0.412000
     14 C15         -1.3540     1.6440     0.8360 cc         1 4C4       0.213900
     15 C16         -2.6950     1.6710     1.5310 c3         1 4C4      -0.025500
     16 C20         -6.2770     0.7340     0.1710 c2         1 4C4      -0.308200
     17 C21         -7.0980    -0.3020     0.3890 c2         1 4C4      -0.043400
     18 C22         -8.9180    -1.7780    -0.4350 c          1 4C4       0.642100
     19 O3          -9.6590    -1.8730    -1.5760 os         1 4C4      -0.455100
     20 C23        -10.6500    -2.9150    -1.6460 c3         1 4C4       0.170900
     21 N           -8.0380    -0.7360    -0.5580 ns         1 4C4      -0.412100
     22 C18         -3.8040     1.0610     0.6300 c3         1 4C4      -0.070400
     23 C17         -2.6110     1.0070     2.9270 c3         1 4C4      -0.087100
     24 C            0.3380     0.1630    -0.0700 c          1 4C4       0.695300
     25 O            0.7160    -0.9790    -0.2850 o          1 4C4      -0.486000
     26 O2           1.3850     3.6800    -0.4800 oh         1 4C4      -0.488100
     27 O1           2.6000     1.3560    -2.2530 o          1 4C4      -0.523100
     28 C4           3.2570     0.5380     1.3440 c3         1 4C4      -0.041900
     29 C5           4.7660     0.3500    -0.6880 cf         1 4C4      -0.106000
     30 C6           5.9410    -0.1260     0.0470 cf         1 4C4      -0.206000
     31 H8           7.0720     0.9710    -2.2560 hc         1 4C4       0.045033
     32 H7           8.6540     0.2490    -2.0040 hc         1 4C4       0.045033
     33 H6           7.3160    -0.7560    -2.5740 hc         1 4C4       0.045033
     34 H10          9.2420    -0.2060     0.2240 hc         1 4C4       0.045200
     35 H9           8.1030    -0.7600     1.4290 hc         1 4C4       0.045200
     36 H12          7.7660    -2.8980     0.1550 hc         1 4C4       0.043200
     37 H11          8.9410    -2.3620    -1.0460 hc         1 4C4       0.043200
     38 H14         10.7180    -2.2690     0.7330 hc         1 4C4       0.036200
     39 H13          9.5440    -2.8120     1.9320 hc         1 4C4       0.036200
     40 H17          9.2610    -4.9810     0.6860 hc         1 4C4       0.032033
     41 H16         10.4450    -4.4340    -0.5240 hc         1 4C4       0.032033
     42 H15         10.9530    -4.7130     1.1560 hc         1 4C4       0.032033
     43 H19         -0.9610     3.7250     0.7100 ha         1 4C4       0.206000
     44 H           -2.9580     2.7230     1.6970 hc         1 4C4       0.062700
     45 H26         -5.4240     2.3150     1.3490 hc         1 4C4       0.043200
     46 H25         -5.3560     0.7340     2.1150 hc         1 4C4       0.043200
     47 H27         -6.3180     1.2850    -0.7700 ha         1 4C4       0.172000
     48 H28         -7.0930    -0.8820     1.3180 h4         1 4C4       0.211000
     49 H30        -10.1860    -3.9050    -1.5450 h1         1 4C4       0.051367
     50 H31        -11.3970    -2.7990    -0.8500 h1         1 4C4       0.051367
     51 H32        -11.1720    -2.8810    -2.6100 h1         1 4C4       0.051367
     52 H23         -3.7350     1.5220    -0.3630 hc         1 4C4       0.057200
     53 H24         -3.6120    -0.0110     0.4890 hc         1 4C4       0.057200
     54 H20         -2.4420    -0.0730     2.8380 hc         1 4C4       0.047033
     55 H22         -1.7840     1.4350     3.5050 hc         1 4C4       0.047033
     56 H21         -3.5320     1.1660     3.5000 hc         1 4C4       0.047033
     57 H18          0.8600     4.4490    -0.1800 ho         1 4C4       0.479000
     58 H2           2.9760    -0.4820     1.6320 hc         1 4C4       0.042033
     59 H1           4.1350     0.8200     1.9350 hc         1 4C4       0.042033
     60 H3           2.4600     1.2110     1.6800 hc         1 4C4       0.042033
     61 H4           4.8910     0.4680    -1.7660 ha         1 4C4       0.189000
     62 H5           5.7880    -0.4140     1.0870 ha         1 4C4       0.174000
     63 H29         -8.0950    -0.2440    -1.4410 hn         1 4C4       0.331500
     64 C19         -5.2460     1.2500     1.1540 c3         1 4C4      -0.019200
@<TRIPOS>BOND
     1     1     2 1   
     2     1    12 2   
     3     1    24 1   
     4     2     3 1   
     5     2    27 2   
     6     3    28 1   
     7     3    29 2   
     8     4    18 2   
     9     5    14 1   
    10     5    24 1   
    11     6     7 1   
    12     6     8 1   
    13     6    30 2   
    14     7    31 1   
    15     7    32 1   
    16     7    33 1   
    17     8     9 1   
    18     8    34 1   
    19     8    35 1   
    20     9    10 1   
    21     9    36 1   
    22     9    37 1   
    23    10    11 1   
    24    10    38 1   
    25    10    39 1   
    26    11    40 1   
    27    11    41 1   
    28    11    42 1   
    29    12    13 1   
    30    12    26 1   
    31    13    14 2   
    32    13    43 1   
    33    14    15 1   
    34    15    22 1   
    35    15    23 1   
    36    15    44 1   
    37    16    17 2   
    38    16    47 1   
    39    16    64 1   
    40    17    21 1   
    41    17    48 1   
    42    18    19 1   
    43    18    21 1   
    44    19    20 1   
    45    20    49 1   
    46    20    50 1   
    47    20    51 1   
    48    21    63 1   
    49    22    52 1   
    50    22    53 1   
    51    22    64 1   
    52    23    54 1   
    53    23    55 1   
    54    23    56 1   
    55    24    25 2   
    56    26    57 1   
    57    28    58 1   
    58    28    59 1   
    59    28    60 1   
    60    29    30 1   
    61    29    61 1   
    62    30    62 1   
    63    45    64 1   
    64    46    64 1   
@<TRIPOS>SUBSTRUCTURE
     1 4C4         1 TEMP              0 ****  ****    0 ROOT
