@<TRIPOS>MOLECULE
4C4
   64    64     1     0     0
SMALL
abcg2


@<TRIPOS>ATOM
      1 C1           1.2890     2.0660    -0.0030 cc         1 4C4      -0.400400
      2 C2           2.6770     1.9990    -0.5440 c          1 4C4       0.622500
      3 C3           3.6920     1.2400     0.2190 ce         1 4C4      -0.183400
      4 O4          -8.2700    -2.7640     0.6390 o          1 4C4      -0.524000
      5 O5          -0.6770     0.9440     0.7540 os         1 4C4      -0.335200
      6 C7           6.9810    -0.3270    -0.5560 c2         1 4C4      -0.076400
      7 C8           7.2520    -0.0760    -2.0060 c3         1 4C4      -0.062900
      8 C9           8.0330    -1.1240     0.1630 c3         1 4C4      -0.048200
      9 C10          7.9460    -2.6230    -0.1450 c3         1 4C4      -0.074400
     10 C11          9.0250    -3.4290     0.5670 c3         1 4C4      -0.076400
     11 C12          8.9360    -4.9180     0.2660 c3         1 4C4      -0.089100
     12 C13          0.6240     3.2600     0.1450 cd         1 4C4       0.282100
     13 C14         -0.7150     3.2760     0.6310 cd         1 4C4      -0.412000
     14 C15         -1.3150     2.1050     0.9240 cc         1 4C4       0.213900
     15 C16         -2.7030     1.9600     1.4560 c3         1 4C4      -0.025500
     16 C20         -5.9100     0.5390    -0.2040 c2         1 4C4      -0.308200
     17 C21         -6.6590    -0.5170     0.1040 c2         1 4C4      -0.043400
     18 C22         -8.1920    -2.2900    -0.4730 c          1 4C4       0.642100
     19 O3          -8.8370    -2.7580    -1.5390 os         1 4C4      -0.455100
     20 C23         -9.6680    -3.8980    -1.3390 c3         1 4C4       0.170900
     21 N           -7.4390    -1.2140    -0.8100 ns         1 4C4      -0.412100
     22 C18         -3.5800     1.1710     0.4700 c3         1 4C4      -0.070400
     23 C17         -2.6810     1.3320     2.8520 c3         1 4C4      -0.087100
     24 C            0.6130     0.8420     0.2890 c          1 4C4       0.695300
     25 O            1.0450    -0.2790     0.1550 o          1 4C4      -0.486000
     26 O2           1.2480     4.3900    -0.1300 oh         1 4C4      -0.488100
     27 O1           2.9400     2.5800    -1.5820 o          1 4C4      -0.523100
     28 C4           3.4850     0.9580     1.6800 c3         1 4C4      -0.041900
     29 C5           4.7950     0.8430    -0.4550 cf         1 4C4      -0.106000
     30 C6           5.8870     0.0930     0.1100 cf         1 4C4      -0.206000
     31 H8           8.1160     0.5850    -2.1110 hc         1 4C4       0.045033
     32 H7           7.5130    -1.0060    -2.5160 hc         1 4C4       0.045033
     33 H6           6.4210     0.3730    -2.5440 hc         1 4C4       0.045033
     34 H10          9.0250    -0.7590    -0.1250 hc         1 4C4       0.045200
     35 H9           7.9400    -0.9770     1.2420 hc         1 4C4       0.045200
     36 H12          6.9590    -2.9900     0.1520 hc         1 4C4       0.043200
     37 H11          8.0270    -2.7880    -1.2230 hc         1 4C4       0.043200
     38 H14         10.0100    -3.0540     0.2720 hc         1 4C4       0.036200
     39 H13          8.9480    -3.2650     1.6460 hc         1 4C4       0.036200
     40 H17          7.9710    -5.3270     0.5690 hc         1 4C4       0.032033
     41 H16          9.0540    -5.1110    -0.8020 hc         1 4C4       0.032033
     42 H15          9.7120    -5.4790     0.7890 hc         1 4C4       0.032033
     43 H19         -1.2460     4.2060     0.7820 ha         1 4C4       0.206000
     44 H           -3.1040     2.9740     1.5390 hc         1 4C4       0.062700
     45 H26         -5.3580     2.3220     0.8260 hc         1 4C4       0.043200
     46 H25         -5.2680     0.8650     1.7970 hc         1 4C4       0.043200
     47 H27         -5.8780     0.8990    -1.2290 ha         1 4C4       0.172000
     48 H28         -6.7040    -0.8980     1.1160 h4         1 4C4       0.211000
     49 H30         -9.0920    -4.7610    -1.0060 h1         1 4C4       0.051367
     50 H31        -10.4620    -3.6960    -0.6200 h1         1 4C4       0.051367
     51 H32        -10.1100    -4.1160    -2.3070 h1         1 4C4       0.051367
     52 H23         -3.4200     1.5540    -0.5420 hc         1 4C4       0.057200
     53 H24         -3.2740     0.1220     0.4610 hc         1 4C4       0.057200
     54 H20         -2.3460     0.2950     2.8180 hc         1 4C4       0.047033
     55 H22         -2.0260     1.8830     3.5260 hc         1 4C4       0.047033
     56 H21         -3.6800     1.3440     3.2870 hc         1 4C4       0.047033
     57 H18          0.6840     5.1540     0.0430 ho         1 4C4       0.479000
     58 H2           3.2350    -0.0870     1.8690 hc         1 4C4       0.042033
     59 H1           4.3860     1.1840     2.2500 hc         1 4C4       0.042033
     60 H3           2.6870     1.5670     2.1010 hc         1 4C4       0.042033
     61 H4           4.8540     1.0970    -1.5060 ha         1 4C4       0.189000
     62 H5           5.8240    -0.1570     1.1640 ha         1 4C4       0.174000
     63 H29         -7.4460    -0.9050    -1.7710 hn         1 4C4       0.331500
     64 C19         -5.0700     1.2640     0.7990 c3         1 4C4      -0.019200
@<TRIPOS>BOND
     1     1     2 1   
     2     1    12 2   
     3     1    24 1   
     4     2     3 1   
     5     2    27 2   
     6     3    28 1   
     7     3    29 2   
     8     4    18 2   
     9     5    14 1   
    10     5    24 1   
    11     6     7 1   
    12     6     8 1   
    13     6    30 2   
    14     7    31 1   
    15     7    32 1   
    16     7    33 1   
    17     8     9 1   
    18     8    34 1   
    19     8    35 1   
    20     9    10 1   
    21     9    36 1   
    22     9    37 1   
    23    10    11 1   
    24    10    38 1   
    25    10    39 1   
    26    11    40 1   
    27    11    41 1   
    28    11    42 1   
    29    12    13 1   
    30    12    26 1   
    31    13    14 2   
    32    13    43 1   
    33    14    15 1   
    34    15    22 1   
    35    15    23 1   
    36    15    44 1   
    37    16    17 2   
    38    16    47 1   
    39    16    64 1   
    40    17    21 1   
    41    17    48 1   
    42    18    19 1   
    43    18    21 1   
    44    19    20 1   
    45    20    49 1   
    46    20    50 1   
    47    20    51 1   
    48    21    63 1   
    49    22    52 1   
    50    22    53 1   
    51    22    64 1   
    52    23    54 1   
    53    23    55 1   
    54    23    56 1   
    55    24    25 2   
    56    26    57 1   
    57    28    58 1   
    58    28    59 1   
    59    28    60 1   
    60    29    30 1   
    61    29    61 1   
    62    30    62 1   
    63    45    64 1   
    64    46    64 1   
@<TRIPOS>SUBSTRUCTURE
     1 4C4         1 TEMP              0 ****  ****    0 ROOT
