@<TRIPOS>MOLECULE
4C5
   50    52     1     0     0
SMALL
abcg2


@<TRIPOS>ATOM
      1 O1           4.3600     1.3790    -1.5550 o          1 4C5      -0.723500
      2 C1           4.4180     0.2790    -0.9690 c          1 4C5       0.695000
      3 O2           5.2770    -0.0860    -0.1440 o          1 4C5      -0.723500
      4 C2           3.2730    -0.7230    -1.2930 c3         1 4C5       0.013500
      5 N            3.4830    -2.0820    -0.8280 n8         1 4C5      -0.995200
      6 C3           1.9840    -0.1550    -0.7030 c3         1 4C5       0.110600
      7 S            0.5460    -1.0970    -1.2920 ss         1 4C5      -0.463000
      8 C4          -0.7640    -0.5810    -0.0920 c3         1 4C5       0.245900
      9 C12         -2.0740    -1.1330    -0.6600 ca         1 4C5      -0.057300
     10 C17         -2.1360    -2.4690    -1.0630 ca         1 4C5      -0.095750
     11 C16         -3.3220    -3.0220    -1.5210 ca         1 4C5      -0.120750
     12 C15         -4.4800    -2.2560    -1.5700 ca         1 4C5      -0.120000
     13 C14         -4.4350    -0.9360    -1.1510 ca         1 4C5      -0.120750
     14 C13         -3.2440    -0.3800    -0.7000 ca         1 4C5      -0.095750
     15 C18         -0.5910    -1.2320     1.2830 ca         1 4C5      -0.057300
     16 C23         -1.5540    -0.9730     2.2630 ca         1 4C5      -0.095750
     17 C22         -1.4720    -1.5540     3.5170 ca         1 4C5      -0.120750
     18 C21         -0.4260    -2.4180     3.8210 ca         1 4C5      -0.120000
     19 C20          0.5290    -2.6890     2.8540 ca         1 4C5      -0.120750
     20 C19          0.4450    -2.1030     1.5950 ca         1 4C5      -0.095750
     21 C5          -0.7230     0.9390    -0.0330 ca         1 4C5      -0.112300
     22 C11         -1.0040     1.6820    -1.1860 ca         1 4C5      -0.056000
     23 C10         -0.9110     3.0570    -1.2020 ca         1 4C5      -0.173000
     24 C8          -0.5110     3.7510    -0.0550 ca         1 4C5       0.139100
     25 O3          -0.4460     5.0920    -0.1610 os         1 4C5      -0.345100
     26 C9          -0.0690     5.8380     0.9790 c3         1 4C5       0.150900
     27 C7          -0.2050     3.0310     1.0910 ca         1 4C5      -0.173000
     28 C6          -0.3110     1.6410     1.0880 ca         1 4C5      -0.056000
     29 H2           3.1660    -0.7520    -2.3830 h1         1 4C5       0.051700
     30 H3           4.2410    -2.4930    -1.3610 hn         1 4C5       0.384000
     31 H4           3.8390    -2.0350     0.1200 hn         1 4C5       0.384000
     32 H6           2.0260    -0.2040     0.3890 h1         1 4C5       0.066200
     33 H7           1.8680     0.8900    -0.9860 h1         1 4C5       0.066200
     34 H8          -1.2530    -3.0940    -1.0100 ha         1 4C5       0.131750
     35 H9          -3.3410    -4.0590    -1.8330 ha         1 4C5       0.104000
     36 H10         -5.4070    -2.6880    -1.9230 ha         1 4C5       0.100000
     37 H11         -5.3300    -0.3280    -1.1690 ha         1 4C5       0.104000
     38 H12         -3.2410     0.6510    -0.3730 ha         1 4C5       0.131750
     39 H13         -2.3800    -0.3060     2.0450 ha         1 4C5       0.131750
     40 H14         -2.2300    -1.3350     4.2590 ha         1 4C5       0.104000
     41 H15         -0.3620    -2.8760     4.7990 ha         1 4C5       0.100000
     42 H16          1.3470    -3.3630     3.0720 ha         1 4C5       0.104000
     43 H17          1.1940    -2.3410     0.8500 ha         1 4C5       0.131750
     44 H18         -1.2930     1.1730    -2.0970 ha         1 4C5       0.124000
     45 H19         -1.1420     3.6060    -2.1070 ha         1 4C5       0.116500
     46 H20         -0.7630     5.6890     1.8110 h1         1 4C5       0.035700
     47 H21          0.9410     5.5900     1.3160 h1         1 4C5       0.035700
     48 H22         -0.0930     6.8850     0.6860 h1         1 4C5       0.035700
     49 H23          0.1250     3.5200     1.9970 ha         1 4C5       0.116500
     50 H24         -0.0450     1.1170     1.9950 ha         1 4C5       0.124000
@<TRIPOS>BOND
     1     1     2 1   
     2     2     3 1   
     3     2     4 1   
     4     4     5 1   
     5     4     6 1   
     6     4    29 1   
     7     5    30 1   
     8     5    31 1   
     9     6     7 1   
    10     6    32 1   
    11     6    33 1   
    12     7     8 1   
    13     8     9 1   
    14     8    15 1   
    15     8    21 1   
    16     9    10 ar  
    17     9    14 ar  
    18    10    11 ar  
    19    10    34 1   
    20    11    12 ar  
    21    11    35 1   
    22    12    13 ar  
    23    12    36 1   
    24    13    14 ar  
    25    13    37 1   
    26    14    38 1   
    27    15    16 ar  
    28    15    20 ar  
    29    16    17 ar  
    30    16    39 1   
    31    17    18 ar  
    32    17    40 1   
    33    18    19 ar  
    34    18    41 1   
    35    19    20 ar  
    36    19    42 1   
    37    20    43 1   
    38    21    22 ar  
    39    21    28 ar  
    40    22    23 ar  
    41    22    44 1   
    42    23    24 ar  
    43    23    45 1   
    44    24    25 1   
    45    24    27 ar  
    46    25    26 1   
    47    26    46 1   
    48    26    47 1   
    49    26    48 1   
    50    27    28 ar  
    51    27    49 1   
    52    28    50 1   
@<TRIPOS>SUBSTRUCTURE
     1 4C5         1 TEMP              0 ****  ****    0 ROOT
