@<TRIPOS>MOLECULE
4C5
   50    52     1     0     0
SMALL
No Charge or Current Charge


@<TRIPOS>ATOM
      1 O1           5.0020     1.0400    -1.8100 o          1 4C5      -0.723500
      2 C1           4.4880     0.4240    -0.8870 c          1 4C5       0.695000
      3 O2           4.8520     0.5350     0.2770 o          1 4C5      -0.723500
      4 C2           3.3870    -0.6540    -1.2270 c3         1 4C5       0.013500
      5 N            3.7400    -2.0890    -0.8760 n8         1 4C5      -0.995200
      6 C3           2.0390    -0.2030    -0.6020 c3         1 4C5       0.110600
      7 S            0.5820    -1.1270    -1.3080 ss         1 4C5      -0.463000
      8 C4          -0.7780    -0.6450    -0.1140 c3         1 4C5       0.245900
      9 C12         -2.1300    -1.1740    -0.6600 ca         1 4C5      -0.057300
     10 C17         -2.2130    -2.4620    -1.2400 ca         1 4C5      -0.095750
     11 C16         -3.4390    -2.9660    -1.7100 ca         1 4C5      -0.120750
     12 C15         -4.6070    -2.1990    -1.5940 ca         1 4C5      -0.120000
     13 C14         -4.5510    -0.9320    -0.9950 ca         1 4C5      -0.120750
     14 C13         -3.3270    -0.4270    -0.5240 ca         1 4C5      -0.095750
     15 C18         -0.6050    -1.2930     1.2870 ca         1 4C5      -0.057300
     16 C23         -1.5080    -0.9420     2.3190 ca         1 4C5      -0.095750
     17 C22         -1.4110    -1.5180     3.5970 ca         1 4C5      -0.120750
     18 C21         -0.4180    -2.4690     3.8660 ca         1 4C5      -0.120000
     19 C20          0.4720    -2.8500     2.8510 ca         1 4C5      -0.120750
     20 C19          0.3770    -2.2760     1.5710 ca         1 4C5      -0.095750
     21 C5          -0.7260     0.9040    -0.0790 ca         1 4C5      -0.112300
     22 C11         -1.1080     1.6370    -1.2270 ca         1 4C5      -0.056000
     23 C10         -1.0410     3.0400    -1.2430 ca         1 4C5      -0.173000
     24 C8          -0.5750     3.7430    -0.1240 ca         1 4C5       0.139100
     25 O3          -0.5300     5.1200    -0.1980 os         1 4C5      -0.345100
     26 C9          -0.0650     5.9320     0.8950 c3         1 4C5       0.150900
     27 C7          -0.1600     3.0270     1.0170 ca         1 4C5      -0.173000
     28 C6          -0.2280     1.6220     1.0350 ca         1 4C5      -0.056000
     29 H2           3.2570    -0.6170    -2.3180 h1         1 4C5       0.051700
     30 H3           4.6100    -2.3480    -1.3570 hn         1 4C5       0.384000
     31 H4           4.0010    -2.1270     0.1170 hn         1 4C5       0.384000
     32 H6           2.0750    -0.3370     0.4870 h1         1 4C5       0.066200
     33 H7           1.8980     0.8670    -0.8030 h1         1 4C5       0.066200
     34 H8          -1.3280    -3.0870    -1.3220 ha         1 4C5       0.131750
     35 H9          -3.4820    -3.9560    -2.1590 ha         1 4C5       0.104000
     36 H10         -5.5560    -2.5900    -1.9560 ha         1 4C5       0.100000
     37 H11         -5.4580    -0.3410    -0.8890 ha         1 4C5       0.104000
     38 H12         -3.3200     0.5500    -0.0460 ha         1 4C5       0.131750
     39 H13         -2.2890    -0.2090     2.1320 ha         1 4C5       0.131750
     40 H14         -2.1090    -1.2260     4.3780 ha         1 4C5       0.104000
     41 H15         -0.3430    -2.9170     4.8540 ha         1 4C5       0.100000
     42 H16          1.2350    -3.5990     3.0530 ha         1 4C5       0.104000
     43 H17          1.0740    -2.6160     0.8120 ha         1 4C5       0.131750
     44 H18         -1.4580     1.1140    -2.1140 ha         1 4C5       0.124000
     45 H19         -1.3490     3.5850    -2.1310 ha         1 4C5       0.116500
     46 H20         -0.6850     5.7750     1.7880 h1         1 4C5       0.035700
     47 H21          0.9770     5.6930     1.1420 h1         1 4C5       0.035700
     48 H22         -0.1160     6.9940     0.6280 h1         1 4C5       0.035700
     49 H23          0.2230     3.5380     1.8950 ha         1 4C5       0.116500
     50 H24          0.1280     1.1040     1.9220 ha         1 4C5       0.124000
@<TRIPOS>BOND
     1     1     2 1   
     2     2     3 1   
     3     2     4 1   
     4     4     5 1   
     5     4     6 1   
     6     4    29 1   
     7     5    30 1   
     8     5    31 1   
     9     6     7 1   
    10     6    32 1   
    11     6    33 1   
    12     7     8 1   
    13     8     9 1   
    14     8    15 1   
    15     8    21 1   
    16     9    10 ar  
    17     9    14 ar  
    18    10    11 ar  
    19    10    34 1   
    20    11    12 ar  
    21    11    35 1   
    22    12    13 ar  
    23    12    36 1   
    24    13    14 ar  
    25    13    37 1   
    26    14    38 1   
    27    15    16 ar  
    28    15    20 ar  
    29    16    17 ar  
    30    16    39 1   
    31    17    18 ar  
    32    17    40 1   
    33    18    19 ar  
    34    18    41 1   
    35    19    20 ar  
    36    19    42 1   
    37    20    43 1   
    38    21    22 ar  
    39    21    28 ar  
    40    22    23 ar  
    41    22    44 1   
    42    23    24 ar  
    43    23    45 1   
    44    24    25 1   
    45    24    27 ar  
    46    25    26 1   
    47    26    46 1   
    48    26    47 1   
    49    26    48 1   
    50    27    28 ar  
    51    27    49 1   
    52    28    50 1   
@<TRIPOS>SUBSTRUCTURE
     1 4C5         1 TEMP              0 ****  ****    0 ROOT
