@<TRIPOS>MOLECULE
4C6
   56    59     1     0     0
SMALL
No Charge or Current Charge


@<TRIPOS>ATOM
      1 C1         -85.8010    26.4090    22.7230 cc         1 4C6      -0.079200
      2 C2         -84.2910    23.7760    21.9990 cc         1 4C6      -0.474500
      3 C3         -84.9390    23.1040    22.9810 cd         1 4C6       0.330300
      4 O4         -89.0740    26.5420    22.1750 o          1 4C6      -0.468100
      5 C7         -86.9060    26.8120    23.4660 cd         1 4C6       0.054800
      6 C8         -85.8940    27.7560    25.6040 c6         1 4C6       0.215300
      7 C9         -85.5700    26.7130    26.7000 c6         1 4C6      -0.099900
      8 C10        -86.8220    26.3870    27.5650 c6         1 4C6      -0.058700
      9 C11        -86.5300    25.2850    28.6260 c3         1 4C6      -0.025100
     10 C12        -85.4230    25.6550    29.6080 ca         1 4C6      -0.090300
     11 C13        -84.1530    25.0550    29.5120 ca         1 4C6      -0.105500
     12 C14        -83.1330    25.4040    30.4130 ca         1 4C6      -0.108000
     13 C15        -83.3710    26.3560    31.4230 ca         1 4C6      -0.073300
     14 C16        -82.2660    26.7370    32.3950 c3         1 4C6      -0.047800
     15 C19        -88.0150    25.9870    26.6500 c6         1 4C6      -0.099900
     16 C20        -88.2850    27.0550    25.5620 c6         1 4C6       0.215300
     17 C21        -87.8570    26.4960    22.3620 c          1 4C6       0.478300
     18 C          -86.6300    26.0640    21.5360 c          1 4C6       0.496300
     19 O          -86.4500    25.6270    20.4010 o          1 4C6      -0.475100
     20 N          -84.4220    26.2920    22.9440 nu         1 4C6      -0.744100
     21 S          -83.3330    25.2370    22.2030 sy         1 4C6       1.260600
     22 O2         -83.0140    25.8410    20.9090 o          1 4C6      -0.535500
     23 O3         -82.3330    25.0120    23.2460 o          1 4C6      -0.535500
     24 C5         -84.5510    23.0210    20.8420 cc         1 4C6       0.391300
     25 C6         -84.0050    23.3400    19.4810 c3         1 4C6      -0.145400
     26 N1         -85.3130    21.9620    21.0550 nd         1 4C6      -0.357300
     27 O1         -85.5780    22.0120    22.4610 os         1 4C6      -0.084700
     28 C4         -85.0760    23.3680    24.4540 c3         1 4C6      -0.165400
     29 N2         -87.0430    27.2930    24.7850 nh         1 4C6      -0.629400
     30 C18        -85.6600    26.6080    30.6160 ca         1 4C6      -0.105500
     31 C17        -84.6400    26.9570    31.5180 ca         1 4C6      -0.108000
     32 H1         -85.0090    27.9460    24.9830 h1         1 4C6       0.065450
     33 H2         -86.1480    28.7120    26.0850 h1         1 4C6       0.065450
     34 H3         -85.1870    25.7970    26.2330 hc         1 4C6       0.055200
     35 H4         -84.7600    27.1010    27.3330 hc         1 4C6       0.055200
     36 H5         -87.1050    27.2920    28.1220 hc         1 4C6       0.053700
     37 H6         -87.4470    25.0730    29.1910 hc         1 4C6       0.050700
     38 H7         -86.2790    24.3450    28.1190 hc         1 4C6       0.050700
     39 H8         -83.9530    24.3200    28.7350 ha         1 4C6       0.108500
     40 H9         -82.1550    24.9350    30.3250 ha         1 4C6       0.113000
     41 H10        -81.6790    27.5790    32.0090 hc         1 4C6       0.044367
     42 H11        -82.6740    27.0310    33.3700 hc         1 4C6       0.044367
     43 H12        -81.5780    25.9000    32.5670 hc         1 4C6       0.044367
     44 H13        -88.9220    25.8430    27.2520 hc         1 4C6       0.055200
     45 H14        -87.8070    25.0230    26.1640 hc         1 4C6       0.055200
     46 H15        -88.6170    27.9890    26.0390 h1         1 4C6       0.065450
     47 H16        -89.1030    26.7150    24.9110 h1         1 4C6       0.065450
     48 H17        -84.0780    26.4100    23.8890 hn         1 4C6       0.502000
     49 H18        -84.2820    22.5680    18.7540 hc         1 4C6       0.075700
     50 H19        -84.3970    24.2950    19.1150 hc         1 4C6       0.075700
     51 H20        -82.9110    23.3990    19.5030 hc         1 4C6       0.075700
     52 H21        -85.3710    22.4580    24.9890 hc         1 4C6       0.077367
     53 H22        -84.1340    23.7160    24.8910 hc         1 4C6       0.077367
     54 H23        -85.8460    24.1250    24.6390 hc         1 4C6       0.077367
     55 H24        -86.6360    27.0810    30.7010 ha         1 4C6       0.108500
     56 H25        -84.8370    27.6970    32.2910 ha         1 4C6       0.113000
@<TRIPOS>BOND
     1     1     5 2   
     2     1    18 1   
     3     1    20 1   
     4     2     3 2   
     5     2    21 1   
     6     2    24 1   
     7     3    27 1   
     8     3    28 1   
     9     4    17 2   
    10     5    17 1   
    11     5    29 1   
    12     6     7 1   
    13     6    29 1   
    14     6    32 1   
    15     6    33 1   
    16     7     8 1   
    17     7    34 1   
    18     7    35 1   
    19     8     9 1   
    20     8    15 1   
    21     8    36 1   
    22     9    10 1   
    23     9    37 1   
    24     9    38 1   
    25    10    11 ar  
    26    10    30 ar  
    27    11    12 ar  
    28    11    39 1   
    29    12    13 ar  
    30    12    40 1   
    31    13    14 1   
    32    13    31 ar  
    33    14    41 1   
    34    14    42 1   
    35    14    43 1   
    36    15    16 1   
    37    15    44 1   
    38    15    45 1   
    39    16    29 1   
    40    16    46 1   
    41    16    47 1   
    42    17    18 1   
    43    18    19 2   
    44    20    21 1   
    45    20    48 1   
    46    21    22 2   
    47    21    23 2   
    48    24    25 1   
    49    24    26 2   
    50    25    49 1   
    51    25    50 1   
    52    25    51 1   
    53    26    27 1   
    54    28    52 1   
    55    28    53 1   
    56    28    54 1   
    57    30    31 ar  
    58    30    55 1   
    59    31    56 1   
@<TRIPOS>SUBSTRUCTURE
     1 4C6         1 TEMP              0 ****  ****    0 ROOT
