@<TRIPOS>MOLECULE
4C6
   56    59     1     0     0
SMALL
abcg2


@<TRIPOS>ATOM
      1 C1         -85.8420    26.2670    22.7110 cc         1 4C6      -0.079200
      2 C2         -84.0860    23.8130    21.6970 cc         1 4C6      -0.474500
      3 C3         -84.2920    23.0680    22.8280 cd         1 4C6       0.330300
      4 O4         -89.1190    26.2180    22.7410 o          1 4C6      -0.468100
      5 C7         -86.8210    26.6830    23.6430 cd         1 4C6       0.054800
      6 C8         -85.6690    27.5500    25.6400 c6         1 4C6       0.215300
      7 C9         -85.5510    26.5650    26.7990 c6         1 4C6      -0.099900
      8 C10        -86.8260    26.5520    27.6470 c6         1 4C6      -0.058700
      9 C11        -86.7640    25.5000    28.7660 c3         1 4C6      -0.025100
     10 C12        -85.6680    25.7500    29.7690 ca         1 4C6      -0.090300
     11 C13        -84.4850    25.0120    29.7570 ca         1 4C6      -0.105500
     12 C14        -83.4670    25.2700    30.6710 ca         1 4C6      -0.108000
     13 C15        -83.5950    26.2770    31.6270 ca         1 4C6      -0.073300
     14 C16        -82.4870    26.5740    32.6020 c3         1 4C6      -0.047800
     15 C19        -88.0560    26.3290    26.7610 c6         1 4C6      -0.099900
     16 C20        -88.1090    27.3170    25.5990 c6         1 4C6       0.215300
     17 C21        -87.9090    26.2370    22.7120 c          1 4C6       0.478300
     18 C          -86.8290    25.8030    21.7350 c          1 4C6       0.496300
     19 O          -86.8180    25.2840    20.6330 o          1 4C6      -0.475100
     20 N          -84.4770    26.2640    22.7330 nu         1 4C6      -0.744100
     21 S          -83.5020    25.4460    21.6480 sy         1 4C6       1.260600
     22 O2         -83.7190    25.9650    20.3290 o          1 4C6      -0.535500
     23 O3         -82.1960    25.5400    22.2450 o          1 4C6      -0.535500
     24 C5         -84.4640    22.9680    20.6050 cc         1 4C6       0.391300
     25 C6         -84.4520    23.2470    19.1450 c3         1 4C6      -0.145400
     26 N1         -84.8550    21.8070    21.0540 nd         1 4C6      -0.357300
     27 O1         -84.7510    21.8710    22.4630 os         1 4C6      -0.084700
     28 C4         -84.1500    23.3440    24.2730 c3         1 4C6      -0.165400
     29 N2         -86.8540    27.2420    24.8330 nh         1 4C6      -0.629400
     30 C18        -85.7990    26.7550    30.7300 ca         1 4C6      -0.105500
     31 C17        -84.7830    27.0130    31.6420 ca         1 4C6      -0.108000
     32 H1         -84.7830    27.5520    25.0130 h1         1 4C6       0.065450
     33 H2         -85.7950    28.5670    26.0190 h1         1 4C6       0.065450
     34 H3         -85.3630    25.5640    26.4000 hc         1 4C6       0.055200
     35 H4         -84.6890    26.8390    27.4090 hc         1 4C6       0.055200
     36 H5         -86.9260    27.5380    28.1170 hc         1 4C6       0.053700
     37 H6         -87.7310    25.4890    29.2770 hc         1 4C6       0.050700
     38 H7         -86.6290    24.5140    28.3120 hc         1 4C6       0.050700
     39 H8         -84.3590    24.2210    29.0260 ha         1 4C6       0.108500
     40 H9         -82.5600    24.6770    30.6410 ha         1 4C6       0.113000
     41 H10        -81.8650    27.4010    32.2460 hc         1 4C6       0.044367
     42 H11        -82.8840    26.8630    33.5760 hc         1 4C6       0.044367
     43 H12        -81.8370    25.7090    32.7360 hc         1 4C6       0.044367
     44 H13        -88.9690    26.4300    27.3530 hc         1 4C6       0.055200
     45 H14        -88.0380    25.3110    26.3580 hc         1 4C6       0.055200
     46 H15        -88.2050    28.3400    25.9700 h1         1 4C6       0.065450
     47 H16        -88.9400    27.1090    24.9320 h1         1 4C6       0.065450
     48 H17        -83.9850    26.5030    23.5840 hn         1 4C6       0.502000
     49 H18        -84.7820    22.3650    18.6000 hc         1 4C6       0.075700
     50 H19        -85.1140    24.0840    18.9270 hc         1 4C6       0.075700
     51 H20        -83.4480    23.5200    18.8180 hc         1 4C6       0.075700
     52 H21        -84.0130    22.4130    24.8210 hc         1 4C6       0.077367
     53 H22        -83.3040    24.0040    24.4580 hc         1 4C6       0.077367
     54 H23        -85.0530    23.8360    24.6450 hc         1 4C6       0.077367
     55 H24        -86.7120    27.3390    30.7680 ha         1 4C6       0.108500
     56 H25        -84.9160    27.7940    32.3820 ha         1 4C6       0.113000
@<TRIPOS>BOND
     1     1     5 2   
     2     1    18 1   
     3     1    20 1   
     4     2     3 2   
     5     2    21 1   
     6     2    24 1   
     7     3    27 1   
     8     3    28 1   
     9     4    17 2   
    10     5    17 1   
    11     5    29 1   
    12     6     7 1   
    13     6    29 1   
    14     6    32 1   
    15     6    33 1   
    16     7     8 1   
    17     7    34 1   
    18     7    35 1   
    19     8     9 1   
    20     8    15 1   
    21     8    36 1   
    22     9    10 1   
    23     9    37 1   
    24     9    38 1   
    25    10    11 ar  
    26    10    30 ar  
    27    11    12 ar  
    28    11    39 1   
    29    12    13 ar  
    30    12    40 1   
    31    13    14 1   
    32    13    31 ar  
    33    14    41 1   
    34    14    42 1   
    35    14    43 1   
    36    15    16 1   
    37    15    44 1   
    38    15    45 1   
    39    16    29 1   
    40    16    46 1   
    41    16    47 1   
    42    17    18 1   
    43    18    19 2   
    44    20    21 1   
    45    20    48 1   
    46    21    22 2   
    47    21    23 2   
    48    24    25 1   
    49    24    26 2   
    50    25    49 1   
    51    25    50 1   
    52    25    51 1   
    53    26    27 1   
    54    28    52 1   
    55    28    53 1   
    56    28    54 1   
    57    30    31 ar  
    58    30    55 1   
    59    31    56 1   
@<TRIPOS>SUBSTRUCTURE
     1 4C6         1 TEMP              0 ****  ****    0 ROOT
