@<TRIPOS>MOLECULE
4C8
   23    24     1     0     0
SMALL
bcc


@<TRIPOS>ATOM
      1 BR2          1.1320    -0.6070     2.8900 br         1 4C8      -0.043100
      2 CAF          1.9230    -0.2860     1.2220 ca         1 4C8      -0.039900
      3 CAE          3.2250     0.1840     1.1540 ca         1 4C8      -0.059000
      4 CAD          3.7810     0.4200    -0.0940 ca         1 4C8      -0.026900
      5 BR1          5.5450     1.0610    -0.2050 br         1 4C8      -0.065100
      6 CAC          3.0710     0.1910    -1.2640 ca         1 4C8      -0.059000
      7 CAB          1.7720    -0.2830    -1.1700 ca         1 4C8      -0.039900
      8 BR3          0.7870    -0.6170    -2.7270 br         1 4C8      -0.043100
      9 CAA          1.1870    -0.5310     0.0680 ca         1 4C8       0.147100
     10 OAJ         -0.0620    -1.0510     0.1490 os         1 4C8      -0.215200
     11 CAK         -1.1370    -0.2210     0.0760 ca         1 4C8       0.168100
     12 CAP         -2.3810    -0.8150    -0.1140 ca         1 4C8      -0.047900
     13 BR4         -2.5010    -2.6790    -0.2880 br         1 4C8      -0.056100
     14 CAO         -3.5300    -0.0430    -0.1780 ca         1 4C8      -0.046000
     15 CAN         -3.4240     1.3350    -0.0560 ca         1 4C8      -0.050900
     16 BR5         -4.9820     2.3910    -0.1460 br         1 4C8      -0.083100
     17 CAM         -2.1920     1.9400     0.1290 ca         1 4C8      -0.056000
     18 CAL         -1.0500     1.1580     0.1960 ca         1 4C8      -0.192000
     19 H1           3.7880     0.3670     2.0590 ha         1 4C8       0.170000
     20 H2           3.5170     0.3770    -2.2310 ha         1 4C8       0.170000
     21 H3          -4.4920    -0.5150    -0.3290 ha         1 4C8       0.165000
     22 H4          -2.1020     3.0130     0.2240 ha         1 4C8       0.153000
     23 H5          -0.0940     1.6440     0.3460 ha         1 4C8       0.150000
@<TRIPOS>BOND
     1     1     2 1   
     2     2     3 ar  
     3     2     9 ar  
     4     3     4 ar  
     5     3    19 1   
     6     4     5 1   
     7     4     6 ar  
     8     6     7 ar  
     9     6    20 1   
    10     7     8 1   
    11     7     9 ar  
    12     9    10 1   
    13    10    11 1   
    14    11    12 ar  
    15    11    18 ar  
    16    12    13 1   
    17    12    14 ar  
    18    14    15 ar  
    19    14    21 1   
    20    15    16 1   
    21    15    17 ar  
    22    17    18 ar  
    23    17    22 1   
    24    18    23 1   
@<TRIPOS>SUBSTRUCTURE
     1 4C8         1 TEMP              0 ****  ****    0 ROOT
