@<TRIPOS>MOLECULE
4C8
   23    24     1     0     0
SMALL
No Charge or Current Charge


@<TRIPOS>ATOM
      1 Br2          1.3210    -0.7230     3.0320 br         1 4C8      -0.043100
      2 CAF          2.0150    -0.3490     1.2840 ca         1 4C8      -0.039900
      3 CAE          3.3240     0.1470     1.1530 ca         1 4C8      -0.041000
      4 CAD          3.8400     0.4320    -0.1230 ca         1 4C8      -0.026900
      5 Br1          5.6210     1.1060    -0.3000 br         1 4C8      -0.065100
      6 CAC          3.0540     0.2210    -1.2690 ca         1 4C8      -0.041000
      7 CAB          1.7440    -0.2740    -1.1410 ca         1 4C8      -0.039900
      8 Br3          0.6980    -0.5650    -2.7230 br         1 4C8      -0.043100
      9 CAA          1.2210    -0.5560     0.1390 ca         1 4C8       0.147100
     10 OAJ         -0.0590    -1.0380     0.2760 os         1 4C8      -0.215200
     11 CAK         -1.1720    -0.2340     0.1400 ca         1 4C8       0.168100
     12 CAP         -2.4220    -0.8340    -0.1080 ca         1 4C8      -0.047900
     13 Br4         -2.5740    -2.7390    -0.2670 br         1 4C8      -0.056100
     14 CAO         -3.5720    -0.0390    -0.2510 ca         1 4C8      -0.028000
     15 CAN         -3.4750     1.3590    -0.1430 ca         1 4C8      -0.050900
     16 Br5         -5.0400     2.4410    -0.3370 br         1 4C8      -0.083100
     17 CAM         -2.2320     1.9640     0.1100 ca         1 4C8      -0.038000
     18 CAL         -1.0810     1.1700     0.2530 ca         1 4C8      -0.174000
     19 H1           3.9360     0.3110     2.0370 ha         1 4C8       0.152000
     20 H2           3.4600     0.4390    -2.2550 ha         1 4C8       0.152000
     21 H3          -4.5360    -0.5040    -0.4460 ha         1 4C8       0.147000
     22 H4          -2.1610     3.0470     0.1960 ha         1 4C8       0.135000
     23 H5          -0.1280     1.6520     0.4540 ha         1 4C8       0.132000
@<TRIPOS>BOND
     1     1     2 1   
     2     2     3 ar  
     3     2     9 ar  
     4     3     4 ar  
     5     3    19 1   
     6     4     5 1   
     7     4     6 ar  
     8     6     7 ar  
     9     6    20 1   
    10     7     8 1   
    11     7     9 ar  
    12     9    10 1   
    13    10    11 1   
    14    11    12 ar  
    15    11    18 ar  
    16    12    13 1   
    17    12    14 ar  
    18    14    15 ar  
    19    14    21 1   
    20    15    16 1   
    21    15    17 ar  
    22    17    18 ar  
    23    17    22 1   
    24    18    23 1   
@<TRIPOS>SUBSTRUCTURE
     1 4C8         1 TEMP              0 ****  ****    0 ROOT
