@<TRIPOS>MOLECULE
4C9
   72    76     1     0     0
SMALL
abcg2


@<TRIPOS>ATOM
      1 C1           6.8690     1.3120    -1.2120 c3         1 4C9      -0.053400
      2 C2           8.2400     1.9190    -0.8660 c3         1 4C9      -0.048000
      3 C3           9.1920     0.9040    -0.2320 c3         1 4C9      -0.086433
      4 C4           6.4950    -0.4880     0.4670 c1         1 4C9       0.302900
      5 C5          -4.0570    -1.0520     1.0730 ca         1 4C9      -0.088500
      6 C6          -5.2630    -0.4010     1.2860 ca         1 4C9      -0.121000
      7 C7          -7.3860     1.8320     0.2370 ca         1 4C9       0.135100
      8 C8          -8.5170     2.5930     0.5220 ca         1 4C9      -0.160000
      9 N1          -1.4090    -4.3090    -1.5090 nb         1 4C9      -0.312000
     10 C9          -2.1070    -3.2770    -1.0270 ca         1 4C9       0.459900
     11 C10         -1.4190    -2.2750    -0.3000 ca         1 4C9      -0.382900
     12 C11         -0.0330    -2.4340    -0.2290 ca         1 4C9       0.165500
     13 N3           0.4460    -1.3570     0.4210 na         1 4C9      -0.018100
     14 C12          1.8210    -1.0780     0.7690 c6         1 4C9       0.086300
     15 C13          2.2410     0.2890     0.2230 c6         1 4C9       0.081000
     16 N4           3.6380     0.5270     0.5470 n          1 4C9      -0.409800
     17 C14          4.5490     0.6000    -0.4430 c          1 4C9       0.612100
     18 C15          6.0270     0.7980    -0.0340 c3         1 4C9      -0.077600
     19 C16          8.8440     2.4020    -2.1880 c3         1 4C9      -0.086433
     20 C17          8.0810     3.1200     0.0680 c3         1 4C9      -0.086433
     21 N5           6.8320    -1.5260     0.8320 n1         1 4C9      -0.453000
     22 C18          3.8950     0.5340     1.9810 c6         1 4C9       0.101000
     23 C19          3.5010    -0.8010     2.5980 c6         1 4C9      -0.098400
     24 C20          2.0530    -1.1500     2.2740 c6         1 4C9      -0.090400
     25 N6          -0.5410    -0.5240     0.7830 nc         1 4C9      -0.523100
     26 C21         -1.6710    -1.0450     0.3670 cd         1 4C9       0.435500
     27 C22         -2.9430    -0.3550     0.6050 ca         1 4C9      -0.101900
     28 C23         -5.3520     0.9610     1.0460 ca         1 4C9       0.105100
     29 O2          -6.5350     1.6100     1.2810 os         1 4C9      -0.256200
     30 C24         -7.1790     1.3350    -1.0440 ca         1 4C9      -0.160000
     31 C25         -8.1140     1.6060    -2.0360 ca         1 4C9      -0.077500
     32 C26         -9.2440     2.3620    -1.7650 ca         1 4C9      -0.141000
     33 C27         -9.4380     2.8530    -0.4790 ca         1 4C9      -0.077500
     34 C28         -4.2490     1.6770     0.6030 ca         1 4C9      -0.121000
     35 C29         -3.0500     1.0180     0.3870 ca         1 4C9      -0.088500
     36 N7           0.6740    -3.4550    -0.7190 nb         1 4C9      -0.229000
     37 C30         -0.0900    -4.3410    -1.3240 ca         1 4C9       0.200900
     38 H1           6.2780     2.0880    -1.7040 hc         1 4C9       0.065700
     39 H3           9.2900     0.0050    -0.8440 hc         1 4C9       0.035589
     40 H4          10.1860     1.3430    -0.1250 hc         1 4C9       0.035589
     41 H5           8.8710     0.5980     0.7650 hc         1 4C9       0.035589
     42 H6          -3.9840    -2.1100     1.2940 ha         1 4C9       0.128000
     43 H7          -6.1230    -0.9480     1.6500 ha         1 4C9       0.132500
     44 H8          -8.6680     2.9770     1.5240 ha         1 4C9       0.125000
     45 H9          -3.8280    -3.9650    -1.8410 hn         1 4C9       0.504000
     46 H10         -3.9880    -2.4590    -1.0250 hn         1 4C9       0.504000
     47 H11          2.4130    -1.8490     0.2710 h1         1 4C9       0.099700
     48 H12          2.0970     0.3360    -0.8530 h1         1 4C9       0.078200
     49 H13          1.6380     1.0770     0.6830 h1         1 4C9       0.078200
     50 H15          8.2090     3.1540    -2.6610 hc         1 4C9       0.035589
     51 H16          9.8260     2.8500    -2.0250 hc         1 4C9       0.035589
     52 H17          8.9700     1.5800    -2.8960 hc         1 4C9       0.035589
     53 H18          7.7050     2.8350     1.0520 hc         1 4C9       0.035589
     54 H19          9.0430     3.6110     0.2260 hc         1 4C9       0.035589
     55 H20          7.3950     3.8600    -0.3520 hc         1 4C9       0.035589
     56 H21          4.9350     0.7590     2.1970 h1         1 4C9       0.052200
     57 H22          3.3040     1.3400     2.4260 h1         1 4C9       0.052200
     58 H23          4.1680    -1.5830     2.2260 hc         1 4C9       0.059700
     59 H24          3.6410    -0.7470     3.6790 hc         1 4C9       0.059700
     60 H25          1.3810    -0.4440     2.7730 hc         1 4C9       0.061200
     61 H26          1.8080    -2.1480     2.6420 hc         1 4C9       0.061200
     62 H27         -6.3080     0.7410    -1.2840 ha         1 4C9       0.125000
     63 H28         -7.9490     1.2150    -3.0320 ha         1 4C9       0.114000
     64 H29         -9.9650     2.5700    -2.5450 ha         1 4C9       0.117000
     65 H30        -10.3150     3.4450    -0.2490 ha         1 4C9       0.114000
     66 H31         -4.3270     2.7420     0.4230 ha         1 4C9       0.132500
     67 H32         -2.1930     1.5730     0.0290 ha         1 4C9       0.128000
     68 H33          0.4150    -5.2080    -1.7360 h5         1 4C9       0.049100
     69 H34          6.0860     1.5160     0.7880 hc         1 4C9       0.086700
     70 H35          6.9960     0.5120    -1.9440 hc         1 4C9       0.065700
     71 O1           4.2620     0.5130    -1.6230 o          1 4C9      -0.581100
     72 N2          -3.4190    -3.2530    -1.2590 nv         1 4C9      -1.068900
@<TRIPOS>BOND
     1     1     2 1   
     2     1    18 1   
     3     1    38 1   
     4     1    70 1   
     5     2     3 1   
     6     2    19 1   
     7     2    20 1   
     8     3    39 1   
     9     3    40 1   
    10     3    41 1   
    11     4    18 1   
    12     4    21 3   
    13     5     6 ar  
    14     5    27 ar  
    15     5    42 1   
    16     6    28 ar  
    17     6    43 1   
    18     7     8 ar  
    19     7    29 1   
    20     7    30 ar  
    21     8    33 ar  
    22     8    44 1   
    23     9    10 ar  
    24     9    37 ar  
    25    10    11 ar  
    26    10    72 1   
    27    11    12 ar  
    28    11    26 1   
    29    12    13 1   
    30    12    36 ar  
    31    13    14 1   
    32    13    25 1   
    33    14    15 1   
    34    14    24 1   
    35    14    47 1   
    36    15    16 1   
    37    15    48 1   
    38    15    49 1   
    39    16    17 1   
    40    16    22 1   
    41    17    18 1   
    42    17    71 2   
    43    18    69 1   
    44    19    50 1   
    45    19    51 1   
    46    19    52 1   
    47    20    53 1   
    48    20    54 1   
    49    20    55 1   
    50    22    23 1   
    51    22    56 1   
    52    22    57 1   
    53    23    24 1   
    54    23    58 1   
    55    23    59 1   
    56    24    60 1   
    57    24    61 1   
    58    25    26 2   
    59    26    27 1   
    60    27    35 ar  
    61    28    29 1   
    62    28    34 ar  
    63    30    31 ar  
    64    30    62 1   
    65    31    32 ar  
    66    31    63 1   
    67    32    33 ar  
    68    32    64 1   
    69    33    65 1   
    70    34    35 ar  
    71    34    66 1   
    72    35    67 1   
    73    36    37 ar  
    74    37    68 1   
    75    45    72 1   
    76    46    72 1   
@<TRIPOS>SUBSTRUCTURE
     1 4C9         1 TEMP              0 ****  ****    0 ROOT
