@<TRIPOS>MOLECULE
4C9
   72    76     1     0     0
SMALL
No Charge or Current Charge


@<TRIPOS>ATOM
      1 C1           6.7890     1.3620    -1.2740 c3         1 4C9      -0.053400
      2 C2           7.9390     2.3950    -1.0040 c3         1 4C9      -0.048000
      3 C3           9.1870     1.7240    -0.3700 c3         1 4C9      -0.086433
      4 C4           7.0180    -0.5990     0.3000 c1         1 4C9       0.302900
      5 C5          -4.1190    -1.4140     1.1170 ca         1 4C9      -0.088500
      6 C6          -5.3800    -0.8050     1.2480 ca         1 4C9      -0.121000
      7 C7          -7.3800     1.9220    -0.0080 ca         1 4C9       0.135100
      8 C8          -8.1320     3.0240     0.4310 ca         1 4C9      -0.160000
      9 N1          -1.5490    -4.8480    -0.9880 nb         1 4C9      -0.312000
     10 C9          -2.1400    -3.7000    -0.6300 ca         1 4C9       0.459900
     11 C10         -1.4020    -2.6780    -0.0410 ca         1 4C9      -0.382900
     12 C11         -0.0530    -2.8230     0.1140 ca         1 4C9       0.165500
     13 N3           0.4200    -1.6130     0.6060 na         1 4C9      -0.018100
     14 C12          1.8540    -1.3810     0.9030 c6         1 4C9       0.086300
     15 C13          2.3310    -0.0120     0.3530 c6         1 4C9       0.081000
     16 N4           3.7700     0.2300     0.6650 n          1 4C9      -0.409800
     17 C14          4.7680     0.0850    -0.3330 c          1 4C9       0.612100
     18 C15          6.2050     0.5670    -0.0570 c3         1 4C9      -0.077600
     19 C16          8.3580     3.0110    -2.3660 c3         1 4C9      -0.086433
     20 C17          7.4500     3.5450    -0.0810 c3         1 4C9      -0.086433
     21 N5           7.6570    -1.5210     0.6140 n1         1 4C9      -0.453000
     22 C18          4.0490     0.1890     2.1310 c6         1 4C9       0.101000
     23 C19          3.6080    -1.1640     2.7410 c6         1 4C9      -0.098400
     24 C20          2.1220    -1.4680     2.4280 c6         1 4C9      -0.090400
     25 N6          -0.6100    -0.6810     0.7700 nc         1 4C9      -0.523100
     26 C21         -1.7150    -1.3410     0.4050 cd         1 4C9       0.435500
     27 C22         -3.0540    -0.7290     0.4960 ca         1 4C9      -0.101900
     28 C23         -5.5850     0.5000     0.7730 ca         1 4C9       0.105100
     29 O2          -6.8240     1.0790     0.9290 os         1 4C9      -0.256200
     30 C24         -7.2340     1.6750    -1.3870 ca         1 4C9      -0.160000
     31 C25         -7.8240     2.5430    -2.3230 ca         1 4C9      -0.077500
     32 C26         -8.5650     3.6530    -1.8800 ca         1 4C9      -0.141000
     33 C27         -8.7220     3.8930    -0.5040 ca         1 4C9      -0.077500
     34 C28         -4.5150     1.2110     0.1970 ca         1 4C9      -0.121000
     35 C29         -3.2540     0.6010     0.0670 ca         1 4C9      -0.088500
     36 N7           0.5740    -3.9640    -0.2360 nb         1 4C9      -0.229000
     37 C30         -0.2160    -4.9300    -0.7590 ca         1 4C9       0.200900
     38 H1           5.9620     1.9180    -1.7350 hc         1 4C9       0.065700
     39 H3           9.5160     0.8640    -0.9650 hc         1 4C9       0.035589
     40 H4          10.0220     2.4320    -0.3110 hc         1 4C9       0.035589
     41 H5           8.9820     1.3810     0.6510 hc         1 4C9       0.035589
     42 H6          -3.9670    -2.4170     1.5130 ha         1 4C9       0.128000
     43 H7          -6.1970    -1.3420     1.7220 ha         1 4C9       0.132500
     44 H8          -8.2530     3.2060     1.4960 ha         1 4C9       0.125000
     45 H9          -3.8410    -4.2990    -1.5630 hn         1 4C9       0.504000
     46 H10         -3.8840    -2.6890    -0.9350 hn         1 4C9       0.504000
     47 H11          2.4440    -2.1610     0.4010 h1         1 4C9       0.099700
     48 H12          2.1520     0.0330    -0.7300 h1         1 4C9       0.078200
     49 H13          1.7330     0.7920     0.8060 h1         1 4C9       0.078200
     50 H15          7.5110     3.5130    -2.8500 hc         1 4C9       0.035589
     51 H16          9.1570     3.7520    -2.2360 hc         1 4C9       0.035589
     52 H17          8.7280     2.2370    -3.0510 hc         1 4C9       0.035589
     53 H18          7.2370     3.1910     0.9340 hc         1 4C9       0.035589
     54 H19          8.2130     4.3280     0.0030 hc         1 4C9       0.035589
     55 H20          6.5380     4.0080    -0.4790 hc         1 4C9       0.035589
     56 H21          5.1100     0.3410     2.3580 h1         1 4C9       0.052200
     57 H22          3.4960     1.0060     2.6180 h1         1 4C9       0.052200
     58 H23          4.2430    -1.9670     2.3420 hc         1 4C9       0.059700
     59 H24          3.7680    -1.1510     3.8280 hc         1 4C9       0.059700
     60 H25          1.4800    -0.7530     2.9610 hc         1 4C9       0.061200
     61 H26          1.8570    -2.4670     2.8000 hc         1 4C9       0.061200
     62 H27         -6.6720     0.8120    -1.7340 ha         1 4C9       0.125000
     63 H28         -7.7100     2.3550    -3.3890 ha         1 4C9       0.114000
     64 H29         -9.0220     4.3250    -2.6040 ha         1 4C9       0.117000
     65 H30         -9.3000     4.7500    -0.1630 ha         1 4C9       0.114000
     66 H31         -4.6540     2.2350    -0.1400 ha         1 4C9       0.132500
     67 H32         -2.4320     1.1600    -0.3740 ha         1 4C9       0.128000
     68 H33          0.2730    -5.8600    -1.0450 h5         1 4C9       0.049100
     69 H34          6.1870     1.2140     0.8200 hc         1 4C9       0.086700
     70 H35          7.1140     0.6470    -2.0430 hc         1 4C9       0.065700
     71 O1           4.4810    -0.4160    -1.4140 o          1 4C9      -0.581100
     72 N2          -3.4520    -3.6070    -0.9280 nv         1 4C9      -1.068900
@<TRIPOS>BOND
     1     1     2 1   
     2     1    18 1   
     3     1    38 1   
     4     1    70 1   
     5     2     3 1   
     6     2    19 1   
     7     2    20 1   
     8     3    39 1   
     9     3    40 1   
    10     3    41 1   
    11     4    18 1   
    12     4    21 3   
    13     5     6 ar  
    14     5    27 ar  
    15     5    42 1   
    16     6    28 ar  
    17     6    43 1   
    18     7     8 ar  
    19     7    29 1   
    20     7    30 ar  
    21     8    33 ar  
    22     8    44 1   
    23     9    10 ar  
    24     9    37 ar  
    25    10    11 ar  
    26    10    72 1   
    27    11    12 ar  
    28    11    26 1   
    29    12    13 1   
    30    12    36 ar  
    31    13    14 1   
    32    13    25 1   
    33    14    15 1   
    34    14    24 1   
    35    14    47 1   
    36    15    16 1   
    37    15    48 1   
    38    15    49 1   
    39    16    17 1   
    40    16    22 1   
    41    17    18 1   
    42    17    71 2   
    43    18    69 1   
    44    19    50 1   
    45    19    51 1   
    46    19    52 1   
    47    20    53 1   
    48    20    54 1   
    49    20    55 1   
    50    22    23 1   
    51    22    56 1   
    52    22    57 1   
    53    23    24 1   
    54    23    58 1   
    55    23    59 1   
    56    24    60 1   
    57    24    61 1   
    58    25    26 2   
    59    26    27 1   
    60    27    35 ar  
    61    28    29 1   
    62    28    34 ar  
    63    30    31 ar  
    64    30    62 1   
    65    31    32 ar  
    66    31    63 1   
    67    32    33 ar  
    68    32    64 1   
    69    33    65 1   
    70    34    35 ar  
    71    34    66 1   
    72    35    67 1   
    73    36    37 ar  
    74    37    68 1   
    75    45    72 1   
    76    46    72 1   
@<TRIPOS>SUBSTRUCTURE
     1 4C9         1 TEMP              0 ****  ****    0 ROOT
