@<TRIPOS>MOLECULE
4CC
   59    62     1     0     0
SMALL
bcc


@<TRIPOS>ATOM
      1 N3           1.5190    -0.8810    -0.0600 na         1 4CC      -0.136300
      2 C4          -0.8580    -1.1240    -0.8740 ca         1 4CC      -0.145000
      3 C5          -1.2380     1.1290     0.8210 ca         1 4CC      -0.018000
      4 C7           2.0700     0.0150     0.8090 cc         1 4CC       0.371800
      5 C8           2.1800    -1.9980    -0.6990 c3         1 4CC       0.033600
      6 C10         -2.2970     0.5790     0.1130 ca         1 4CC      -0.153600
      7 C17         -5.9810     1.2160     0.0180 ca         1 4CC       0.555200
      8 C20          6.3900     0.8960    -1.0660 ca         1 4CC      -0.215000
      9 C21         -6.2270     1.8860    -1.1780 ca         1 4CC      -0.232300
     10 C24          7.7950    -0.3230     0.9730 ca         1 4CC      -0.051500
     11 C26         -7.4530     2.5030    -1.3410 ca         1 4CC      -0.090000
     12 C28         -5.5790    -3.2320     0.2520 c          1 4CC       0.932600
     13 C1           0.1900    -0.5740    -0.1440 ca         1 4CC      -0.059200
     14 C2           0.0120     0.5330     0.7020 ca         1 4CC       0.045400
     15 N6           1.2090     0.8730     1.2810 nd         1 4CC      -0.560100
     16 C9          -2.0960    -0.5320    -0.7290 ca         1 4CC      -0.059000
     17 C11          3.5220     0.0140     1.1500 c3         1 4CC       0.196500
     18 C12         -3.6070     1.2880     0.1580 c          1 4CC       0.686700
     19 N13          4.3050     0.3660    -0.0120 nu         1 4CC      -0.759600
     20 N14         -4.7500     0.5450     0.2180 n          1 4CC      -0.475300
     21 O15         -3.6380     2.5090     0.1170 o          1 4CC      -0.617100
     22 C16          5.6780     0.3320     0.0060 ca         1 4CC       0.192600
     23 C18         -4.8370    -0.8230     0.7440 c3         1 4CC       0.119000
     24 C19          6.4110    -0.2690     1.0350 ca         1 4CC      -0.215000
     25 N22         -6.8740     1.1260     0.9870 nb         1 4CC      -0.679000
     26 C23         -5.4630    -1.7830    -0.2530 c3         1 4CC      -0.228400
     27 C25          7.7660     0.8450    -1.1070 ca         1 4CC      -0.051500
     28 C27         -8.0560     1.7100     0.8160 ca         1 4CC       0.421200
     29 C29          8.5020     0.2220    -0.0950 ca         1 4CC      -0.205900
     30 C30         -8.3950     2.4190    -0.3230 ca         1 4CC      -0.276300
     31 O31         -5.2510    -3.4560     1.4340 o          1 4CC      -0.838800
     32 O32         -6.0010    -4.0660    -0.5740 o          1 4CC      -0.838800
     33 C33          9.9820     0.1850    -0.1760 ce         1 4CC       0.669800
     34 N34         10.5920    -0.7580     0.6070 nv         1 4CC      -0.962800
     35 N35         10.5850     1.0380    -0.9150 n2         1 4CC      -0.837100
     36 H1          -0.7250    -1.9690    -1.5360 ha         1 4CC       0.142000
     37 H2          -1.3770     1.9950     1.4550 ha         1 4CC       0.159000
     38 H3           2.2020    -2.8680    -0.0430 h1         1 4CC       0.054700
     39 H4           1.6490    -2.2580    -1.6110 h1         1 4CC       0.054700
     40 H5           3.1960    -1.7200    -0.9660 h1         1 4CC       0.054700
     41 H6           5.8470     1.3690    -1.8760 ha         1 4CC       0.134000
     42 H7          -5.4840     1.9110    -1.9620 ha         1 4CC       0.147000
     43 H8           8.3180    -0.7830     1.8020 ha         1 4CC       0.139500
     44 H9          -7.6780     3.0320    -2.2580 ha         1 4CC       0.125000
     45 H10         -2.9260    -0.9250    -1.3010 ha         1 4CC       0.161000
     46 H11          3.6690     0.7010     1.9910 h1         1 4CC       0.061700
     47 H12          3.8110    -0.9820     1.4950 h1         1 4CC       0.061700
     48 H13          3.9120     1.1020    -0.5790 hn         1 4CC       0.426800
     49 H14         -3.8410    -1.1510     1.0280 h1         1 4CC       0.067700
     50 H15         -5.4260    -0.7930     1.6600 h1         1 4CC       0.067700
     51 H16          5.9160    -0.6890     1.9000 ha         1 4CC       0.134000
     52 H17         -4.8950    -1.7820    -1.1880 hc         1 4CC       0.023700
     53 H18         -6.4660    -1.4360    -0.5270 hc         1 4CC       0.023700
     54 H19          8.2880     1.2860    -1.9450 ha         1 4CC       0.139500
     55 H20         -8.7640     1.6080     1.6300 h4         1 4CC       0.012100
     56 H21         -9.3680     2.8810    -0.4130 ha         1 4CC       0.129000
     57 H23         10.0890    -1.6080     0.8000 hn         1 4CC       0.399800
     58 H24         11.5760    -0.9080     0.4540 hn         1 4CC       0.399800
     59 H25         11.5890     0.8770    -0.9130 hn         1 4CC       0.363400
@<TRIPOS>BOND
     1     1     4 1   
     2     1     5 1   
     3     1    13 1   
     4     2    13 ar  
     5     2    16 ar  
     6     2    36 1   
     7     3     6 ar  
     8     3    14 ar  
     9     3    37 1   
    10     4    15 2   
    11     4    17 1   
    12     5    38 1   
    13     5    39 1   
    14     5    40 1   
    15     6    16 ar  
    16     6    18 1   
    17     7     9 ar  
    18     7    20 1   
    19     7    25 ar  
    20     8    22 ar  
    21     8    27 ar  
    22     8    41 1   
    23     9    11 ar  
    24     9    42 1   
    25    10    24 ar  
    26    10    29 ar  
    27    10    43 1   
    28    11    30 ar  
    29    11    44 1   
    30    12    26 1   
    31    12    31 1   
    32    12    32 1   
    33    13    14 ar  
    34    14    15 1   
    35    16    45 1   
    36    17    19 1   
    37    17    46 1   
    38    17    47 1   
    39    18    20 1   
    40    18    21 2   
    41    19    22 1   
    42    19    48 1   
    43    20    23 1   
    44    22    24 ar  
    45    23    26 1   
    46    23    49 1   
    47    23    50 1   
    48    24    51 1   
    49    25    28 ar  
    50    26    52 1   
    51    26    53 1   
    52    27    29 ar  
    53    27    54 1   
    54    28    30 ar  
    55    28    55 1   
    56    29    33 1   
    57    30    56 1   
    58    33    34 1   
    59    33    35 2   
    60    34    57 1   
    61    34    58 1   
    62    35    59 1   
@<TRIPOS>SUBSTRUCTURE
     1 4CC         1 TEMP              0 ****  ****    0 ROOT
