@<TRIPOS>MOLECULE
4CC
   59    62     1     0     0
SMALL
No Charge or Current Charge


@<TRIPOS>ATOM
      1 N3           1.4050    -1.0940    -0.1240 na         1 4CC      -0.165600
      2 C4          -1.0000    -1.2190    -0.8390 ca         1 4CC      -0.127000
      3 C5          -1.2320     0.9910     0.9240 ca         1 4CC       0.000000
      4 C7           2.0820    -0.2370     0.7540 cc         1 4CC       0.371800
      5 C8           1.9250    -2.2110    -0.9320 c3         1 4CC       0.062900
      6 C10         -2.3820     0.5040     0.2510 ca         1 4CC      -0.153600
      7 C17         -6.0710     1.2140    -0.1960 ca         1 4CC       0.489900
      8 C20          6.4740     1.0330    -1.0300 ca         1 4CC      -0.197000
      9 C21         -5.9850     2.2890    -1.1070 ca         1 4CC      -0.149000
     10 C24          8.0130    -0.3660     0.8500 ca         1 4CC      -0.033500
     11 C26         -7.1360     3.0230    -1.4320 ca         1 4CC      -0.072000
     12 C28         -5.6830    -3.2220     0.9640 c          1 4CC       0.722000
     13 C1           0.0980    -0.7110    -0.1340 ca         1 4CC      -0.059200
     14 C2           0.0000     0.3550     0.7140 ca         1 4CC       0.045400
     15 N6           1.2320     0.6720     1.2840 nd         1 4CC      -0.560100
     16 C9          -2.2500    -0.5960    -0.6430 ca         1 4CC      -0.041000
     17 C11          3.5750    -0.3180     1.0590 c3         1 4CC       0.196500
     18 C12         -3.7090     1.1970     0.4680 c          1 4CC       0.619700
     19 N13          4.4420     0.2100    -0.0350 nu         1 4CC      -0.953200
     20 N14         -4.8930     0.4850     0.1960 n          1 4CC      -0.408300
     21 O15         -3.7420     2.3780     0.7920 o          1 4CC      -0.617100
     22 C16          5.8350     0.2620    -0.0510 ca         1 4CC       0.331000
     23 C18         -5.0480    -0.8050     0.9350 c3         1 4CC       0.119000
     24 C19          6.6090    -0.4350     0.8900 ca         1 4CC      -0.197000
     25 N22         -7.2380     0.8890     0.4120 nb         1 4CC      -0.679000
     26 C23         -5.6550    -1.9580     0.1000 c3         1 4CC      -0.228400
     27 C25          7.8770     1.1080    -1.0760 ca         1 4CC      -0.033500
     28 C27         -8.3460     1.5950     0.0990 ca         1 4CC       0.355900
     29 C29          8.6680     0.3940    -0.1480 ca         1 4CC      -0.205900
     30 C30         -8.3410     2.6610    -0.8130 ca         1 4CC      -0.193000
     31 O31         -6.6660    -3.4220     1.6600 o          1 4CC      -0.733500
     32 O32         -4.6950    -3.9390     0.9630 o          1 4CC      -0.733500
     33 C33         10.1600     0.5070    -0.1850 ce         1 4CC       0.669800
     34 N34         10.8830    -0.4960     0.3530 nv         1 4CC      -1.073200
     35 N35         10.7730     1.4360    -0.7920 n2         1 4CC      -0.837100
     36 H1          -0.8980    -2.0590    -1.5220 ha         1 4CC       0.124000
     37 H2          -1.2950     1.8390     1.6020 ha         1 4CC       0.141000
     38 H3           1.4730    -3.1510    -0.5920 h1         1 4CC       0.054700
     39 H4           1.6740    -2.0490    -1.9870 h1         1 4CC       0.054700
     40 H5           3.0150    -2.2790    -0.8320 h1         1 4CC       0.054700
     41 H6           5.8860     1.5820    -1.7590 ha         1 4CC       0.116000
     42 H7          -5.0350     2.5420    -1.5700 ha         1 4CC       0.129000
     43 H8           8.5830    -0.8990     1.6080 ha         1 4CC       0.121500
     44 H9          -7.0940     3.8480    -2.1400 ha         1 4CC       0.107000
     45 H10         -3.1060    -0.9560    -1.2070 ha         1 4CC       0.143000
     46 H11          3.7680     0.2390     1.9860 h1         1 4CC       0.061700
     47 H12          3.8220    -1.3690     1.2590 h1         1 4CC       0.061700
     48 H13          3.9800     0.7690    -0.7550 hn         1 4CC       0.482000
     49 H14         -4.0730    -1.1340     1.3180 h1         1 4CC       0.067700
     50 H15         -5.6760    -0.6340     1.8200 h1         1 4CC       0.067700
     51 H16          6.1330    -1.0300     1.6620 ha         1 4CC       0.116000
     52 H17         -4.9960    -2.1000    -0.7640 hc         1 4CC       0.023700
     53 H18         -6.6730    -1.6590    -0.1710 hc         1 4CC       0.023700
     54 H19          8.3470     1.7180    -1.8450 ha         1 4CC       0.121500
     55 H20         -9.2670     1.2980     0.6000 h4         1 4CC       0.012100
     56 H21         -9.2600     3.1980    -1.0290 ha         1 4CC       0.111000
     57 H23         10.3610    -1.3460     0.5290 hn         1 4CC       0.455000
     58 H24         11.8110    -0.6320    -0.0290 hn         1 4CC       0.455000
     59 H25         11.7610     1.3940    -0.5190 hn         1 4CC       0.363400
@<TRIPOS>BOND
     1     1     4 1   
     2     1     5 1   
     3     1    13 1   
     4     2    13 ar  
     5     2    16 ar  
     6     2    36 1   
     7     3     6 ar  
     8     3    14 ar  
     9     3    37 1   
    10     4    15 2   
    11     4    17 1   
    12     5    38 1   
    13     5    39 1   
    14     5    40 1   
    15     6    16 ar  
    16     6    18 1   
    17     7     9 ar  
    18     7    20 1   
    19     7    25 ar  
    20     8    22 ar  
    21     8    27 ar  
    22     8    41 1   
    23     9    11 ar  
    24     9    42 1   
    25    10    24 ar  
    26    10    29 ar  
    27    10    43 1   
    28    11    30 ar  
    29    11    44 1   
    30    12    26 1   
    31    12    31 1   
    32    12    32 1   
    33    13    14 ar  
    34    14    15 1   
    35    16    45 1   
    36    17    19 1   
    37    17    46 1   
    38    17    47 1   
    39    18    20 1   
    40    18    21 2   
    41    19    22 1   
    42    19    48 1   
    43    20    23 1   
    44    22    24 ar  
    45    23    26 1   
    46    23    49 1   
    47    23    50 1   
    48    24    51 1   
    49    25    28 ar  
    50    26    52 1   
    51    26    53 1   
    52    27    29 ar  
    53    27    54 1   
    54    28    30 ar  
    55    28    55 1   
    56    29    33 1   
    57    30    56 1   
    58    33    34 1   
    59    33    35 2   
    60    34    57 1   
    61    34    58 1   
    62    35    59 1   
@<TRIPOS>SUBSTRUCTURE
     1 4CC         1 TEMP              0 ****  ****    0 ROOT
