@<TRIPOS>MOLECULE
4CD
   41    43     1     0     0
SMALL
abcg2


@<TRIPOS>ATOM
      1 N1          -0.7880     0.4910    -0.8500 n          1 4CD      -0.417800
      2 C4          -2.2320     0.5880    -1.0690 c5         1 4CD       0.154000
      3 C5          -3.0320     0.3190     0.1820 ca         1 4CD      -0.079300
      4 C6          -2.6150     0.8770     1.3870 ca         1 4CD      -0.094000
      5 C7          -3.3350     0.6860     2.5570 ca         1 4CD      -0.117000
      6 C8          -4.4980    -0.0710     2.5260 ca         1 4CD      -0.103000
      7 C10         -4.2050    -0.4420     0.1440 ca         1 4CD      -0.050300
      8 C13          1.7400     0.1150     0.7470 ca         1 4CD      -0.005000
      9 C15          3.9430    -0.7930     0.4180 ca         1 4CD       0.205100
     10 C17          2.0900    -1.5610    -0.9310 ca         1 4CD       0.226100
     11 C1          -2.4080     2.0170    -1.6030 c5         1 4CD      -0.088400
     12 C2          -1.0720     2.3210    -2.2690 c5         1 4CD      -0.098400
     13 C3          -0.0720     1.6760    -1.3180 c5         1 4CD       0.107000
     14 C9          -4.9220    -0.6230     1.3270 ca         1 4CD      -0.112000
     15 C11         -4.6990    -1.0680    -1.1290 c3         1 4CD      -0.051800
     16 C12          1.2250    -0.6950    -0.2570 ca         1 4CD      -0.212600
     17 C14          3.0760     0.0700     1.0900 ca         1 4CD       0.029000
     18 C16          3.4380    -1.6000    -0.5950 ca         1 4CD      -0.316000
     19 O2           5.2290    -0.8030     0.7810 oh         1 4CD      -0.508100
     20 C18         -0.2420    -0.6970    -0.5350 c          1 4CD       0.633700
     21 O3          -0.9070    -1.7180    -0.4330 o          1 4CD      -0.573100
     22 CL1          3.6930     1.0740     2.3560 cl         1 4CD      -0.177000
     23 H4          -2.5110    -0.1240    -1.8510 h1         1 4CD       0.066700
     24 H6          -1.7090     1.4720     1.4150 ha         1 4CD       0.109000
     25 H7          -2.9910     1.1260     3.4840 ha         1 4CD       0.111000
     26 H8          -5.0720    -0.2310     3.4290 ha         1 4CD       0.111000
     27 H13          1.0810     0.7830     1.2870 ha         1 4CD       0.138000
     28 H1          -3.2600     2.0870    -2.2780 hc         1 4CD       0.057200
     29 H1A         -2.5810     2.7100    -0.7760 hc         1 4CD       0.057200
     30 H2          -1.0150     1.8490    -3.2520 hc         1 4CD       0.054200
     31 H2A         -0.8900     3.3870    -2.3960 hc         1 4CD       0.054200
     32 H3           0.1580     2.3500    -0.4880 h1         1 4CD       0.048700
     33 H3A          0.8650     1.4060    -1.8020 h1         1 4CD       0.048700
     34 H9          -5.8300    -1.2150     1.3050 ha         1 4CD       0.109000
     35 H11         -3.9760    -1.7820    -1.5290 hc         1 4CD       0.043700
     36 H11A        -5.6330    -1.6040    -0.9630 hc         1 4CD       0.043700
     37 H11B        -4.8810    -0.3240    -1.9070 hc         1 4CD       0.043700
     38 H16          4.1100    -2.2670    -1.1270 ha         1 4CD       0.119000
     39 HO1          2.2700    -2.8530    -2.3240 ho         1 4CD       0.468000
     40 HO2          5.7220    -1.4580     0.2720 ho         1 4CD       0.471000
     41 O1           1.5810    -2.3180    -1.9130 oh         1 4CD      -0.507100
@<TRIPOS>BOND
     1     1     2 1   
     2     1    13 1   
     3     1    20 1   
     4     2     3 1   
     5     2    11 1   
     6     2    23 1   
     7     3     4 ar  
     8     3     7 ar  
     9     4     5 ar  
    10     4    24 1   
    11     5     6 ar  
    12     5    25 1   
    13     6    14 ar  
    14     6    26 1   
    15     7    14 ar  
    16     7    15 1   
    17     8    16 ar  
    18     8    17 ar  
    19     8    27 1   
    20     9    17 ar  
    21     9    18 ar  
    22     9    19 1   
    23    10    16 ar  
    24    10    18 ar  
    25    10    41 1   
    26    11    12 1   
    27    11    28 1   
    28    11    29 1   
    29    12    13 1   
    30    12    30 1   
    31    12    31 1   
    32    13    32 1   
    33    13    33 1   
    34    14    34 1   
    35    15    35 1   
    36    15    36 1   
    37    15    37 1   
    38    16    20 1   
    39    17    22 1   
    40    18    38 1   
    41    19    40 1   
    42    20    21 2   
    43    39    41 1   
@<TRIPOS>SUBSTRUCTURE
     1 4CD         1 TEMP              0 ****  ****    0 ROOT
