@<TRIPOS>MOLECULE
4CD
   41    43     1     0     0
SMALL
No Charge or Current Charge


@<TRIPOS>ATOM
      1 N1          -0.8260     0.4920    -0.9490 n          1 4CD      -0.417800
      2 C4          -2.2810     0.6250    -1.1730 c5         1 4CD       0.154000
      3 C5          -3.0380     0.3270     0.1370 ca         1 4CD      -0.079300
      4 C6          -2.5440     0.8080     1.3730 ca         1 4CD      -0.094000
      5 C7          -3.2170     0.5430     2.5760 ca         1 4CD      -0.117000
      6 C8          -4.3990    -0.2070     2.5650 ca         1 4CD      -0.103000
      7 C10         -4.2400    -0.4290     0.1360 ca         1 4CD      -0.050300
      8 C13          1.6910     0.1950     0.6480 ca         1 4CD      -0.005000
      9 C15          3.9370    -0.7330     0.5160 ca         1 4CD       0.205100
     10 C17          2.1450    -1.6880    -0.8230 ca         1 4CD       0.226100
     11 C1          -2.4250     2.1460    -1.4610 c5         1 4CD      -0.088400
     12 C2          -1.1540     2.3980    -2.3070 c5         1 4CD      -0.098400
     13 C3          -0.0720     1.6510    -1.4810 c5         1 4CD       0.107000
     14 C9          -4.9070    -0.6900     1.3500 ca         1 4CD      -0.112000
     15 C11         -4.8390    -0.9710    -1.1590 c3         1 4CD      -0.051800
     16 C12          1.2340    -0.7480    -0.3010 ca         1 4CD      -0.212600
     17 C14          3.0350     0.2070     1.0530 ca         1 4CD       0.029000
     18 C16          3.4890    -1.6770    -0.4190 ca         1 4CD      -0.316000
     19 O2           5.2480    -0.7420     0.8930 oh         1 4CD      -0.508100
     20 C18         -0.2160    -0.7570    -0.7060 c          1 4CD       0.633700
     21 O3          -0.8730    -1.7910    -0.7200 o          1 4CD      -0.573100
     22 Cl1          3.5610     1.4020     2.2420 cl         1 4CD      -0.177000
     23 H4          -2.6010     0.0100    -2.0250 h1         1 4CD       0.066700
     24 H6          -1.6300     1.3970     1.4060 ha         1 4CD       0.109000
     25 H7          -2.8210     0.9220     3.5160 ha         1 4CD       0.111000
     26 H8          -4.9230    -0.4140     3.4960 ha         1 4CD       0.111000
     27 H13          1.0010     0.9090     1.0900 ha         1 4CD       0.138000
     28 H1          -3.3490     2.3820    -1.9990 hc         1 4CD       0.057200
     29 H1A         -2.4110     2.7540    -0.5490 hc         1 4CD       0.057200
     30 H2          -1.2530     1.9650    -3.3090 hc         1 4CD       0.054200
     31 H2A         -0.9260     3.4620    -2.4300 hc         1 4CD       0.054200
     32 H3           0.3000     2.2820    -0.6630 h1         1 4CD       0.048700
     33 H3A          0.7810     1.3490    -2.1040 h1         1 4CD       0.048700
     34 H9          -5.8280    -1.2690     1.3540 ha         1 4CD       0.109000
     35 H11         -4.1750    -1.7130    -1.6190 hc         1 4CD       0.043700
     36 H11A        -5.8050    -1.4600    -0.9890 hc         1 4CD       0.043700
     37 H11B        -5.0060    -0.1670    -1.8850 hc         1 4CD       0.043700
     38 H16          4.1870    -2.3990    -0.8370 ha         1 4CD       0.119000
     39 HO1          2.5360    -3.1490    -1.9820 ho         1 4CD       0.468000
     40 HO2          5.6980    -1.4660     0.4100 ho         1 4CD       0.471000
     41 O1           1.7600    -2.5960    -1.7590 oh         1 4CD      -0.507100
@<TRIPOS>BOND
     1     1     2 1   
     2     1    13 1   
     3     1    20 1   
     4     2     3 1   
     5     2    11 1   
     6     2    23 1   
     7     3     4 ar  
     8     3     7 ar  
     9     4     5 ar  
    10     4    24 1   
    11     5     6 ar  
    12     5    25 1   
    13     6    14 ar  
    14     6    26 1   
    15     7    14 ar  
    16     7    15 1   
    17     8    16 ar  
    18     8    17 ar  
    19     8    27 1   
    20     9    17 ar  
    21     9    18 ar  
    22     9    19 1   
    23    10    16 ar  
    24    10    18 ar  
    25    10    41 1   
    26    11    12 1   
    27    11    28 1   
    28    11    29 1   
    29    12    13 1   
    30    12    30 1   
    31    12    31 1   
    32    13    32 1   
    33    13    33 1   
    34    14    34 1   
    35    15    35 1   
    36    15    36 1   
    37    15    37 1   
    38    16    20 1   
    39    17    22 1   
    40    18    38 1   
    41    19    40 1   
    42    20    21 2   
    43    39    41 1   
@<TRIPOS>SUBSTRUCTURE
     1 4CD         1 TEMP              0 ****  ****    0 ROOT
