@<TRIPOS>MOLECULE
4CE
   74    79     1     0     0
SMALL
No Charge or Current Charge


@<TRIPOS>ATOM
      1 C13          5.0580    -1.2450    -0.0990 ca         1 4CE       0.005000
      2 C17          4.9590    -2.4510     2.0050 ca         1 4CE      -0.035000
      3 C16          6.2430    -2.9650     1.7620 ca         1 4CE      -0.183000
      4 C15          6.9300    -2.6200     0.5940 ca         1 4CE       0.122600
      5 C19          7.1070    -1.4220    -1.5610 cc         1 4CE       0.244900
      6 C20          8.3580    -1.9650    -1.7280 cd         1 4CE      -0.440200
      7 C21          8.9860    -2.8690    -0.7540 c          1 4CE       0.588200
      8 C12          4.3400    -1.5800     1.0780 ca         1 4CE      -0.156500
      9 C34         -6.1010    -3.9100    -2.4480 cc         1 4CE       0.391400
     10 C27         -8.2910    -1.7950     0.7680 ca         1 4CE      -0.086000
     11 N1          -0.2150     4.9920     0.0110 n          1 4CE      -0.414800
     12 C2           0.7480     5.5840     0.9880 c6         1 4CE       0.097000
     13 C3           1.6860     6.6190     0.3060 c6         1 4CE       0.142800
     14 N4           0.9210     7.6750    -0.4210 n3         1 4CE      -0.715600
     15 C5          -0.0240     7.0670    -1.4030 c6         1 4CE       0.142800
     16 C6          -0.9760     6.0420    -0.7260 c6         1 4CE       0.097000
     17 C7           1.2310     0.1880     0.8000 cc         1 4CE       0.403800
     18 N8           0.9840    -0.4080     2.0090 na         1 4CE      -0.283500
     19 C9           2.0770    -1.1720     2.3320 cc         1 4CE      -0.014000
     20 C10          2.9790    -1.0080     1.2900 cd         1 4CE       0.337500
     21 N11          2.4280    -0.1510     0.3500 nd         1 4CE      -0.677000
     22 C14          6.3510    -1.7600    -0.3480 ca         1 4CE      -0.152800
     23 N22          8.2100    -3.1250     0.3400 ns         1 4CE      -0.380100
     24 O23         10.0950    -3.3520    -0.8990 o          1 4CE      -0.559000
     25 O24          6.5450    -0.5980    -2.4590 oh         1 4CE      -0.516100
     26 C25          0.2690     1.1320     0.0990 c3         1 4CE       0.100400
     27 C26         -7.8130    -2.2840    -0.4590 ca         1 4CE      -0.097000
     28 C28         -7.4170    -1.1360     1.6430 ca         1 4CE       0.125000
     29 C29         -6.0680    -0.9650     1.2970 ca         1 4CE      -0.089000
     30 C30         -5.5720    -1.4480     0.0670 ca         1 4CE      -0.028800
     31 C31         -6.4590    -2.1160    -0.8190 ca         1 4CE       0.012800
     32 N32         -6.0300    -2.6060    -2.0540 na         1 4CE      -0.003500
     33 N35         -5.7150    -3.9170    -3.7120 nd         1 4CE      -0.376000
     34 N36         -5.4480    -2.6010    -4.0530 nd         1 4CE      -0.033000
     35 N37         -5.6640    -1.7800    -3.0560 nc         1 4CE      -0.184800
     36 C38         -4.1230    -1.2650    -0.2640 ce         1 4CE      -0.084200
     37 C39         -3.2670    -0.3050     0.1960 cf         1 4CE      -0.278200
     38 O41         -1.3110    -1.0000    -0.9650 o          1 4CE      -0.566100
     39 N42         -1.1490     0.8280     0.3750 ns         1 4CE      -0.519900
     40 C43          0.5750     2.6130     0.4230 c3         1 4CE      -0.173400
     41 C44         -0.1560     3.6540    -0.4410 c          1 4CE       0.604100
     42 O45         -0.7000     3.3290    -1.4890 o          1 4CE      -0.591100
     43 C46          1.7990     8.6960    -1.0330 c3         1 4CE       0.152100
     44 H56          4.6110    -0.5780    -0.8320 ha         1 4CE       0.152000
     45 H58          4.4700    -2.7480     2.9230 ha         1 4CE       0.120000
     46 H57          6.7000    -3.6330     2.4880 ha         1 4CE       0.121000
     47 H59          8.9690    -1.7580    -2.5980 ha         1 4CE       0.208000
     48 H66         -6.4110    -4.7370    -1.8210 h5         1 4CE       0.078100
     49 H64         -9.3350    -1.9260     1.0390 ha         1 4CE       0.142000
     50 H48          0.1780     6.0890     1.7820 h1         1 4CE       0.061200
     51 H47          1.3660     4.8210     1.4760 h1         1 4CE       0.061200
     52 H50          2.3270     7.0740     1.0750 h1         1 4CE       0.042450
     53 H49          2.3490     6.0850    -0.3910 h1         1 4CE       0.042450
     54 H51         -0.6320     7.8470    -1.8830 h1         1 4CE       0.042450
     55 H52          0.5340     6.5550    -2.2010 h1         1 4CE       0.042450
     56 H54         -1.6320     5.5960    -1.4860 h1         1 4CE       0.061200
     57 H53         -1.6240     6.5730    -0.0150 h1         1 4CE       0.061200
     58 H55          0.1380    -0.3000     2.5520 hn         1 4CE       0.366000
     59 H60          8.6100    -3.7440     1.0330 hn         1 4CE       0.328500
     60 H61          7.1940    -0.4970    -3.1850 ho         1 4CE       0.478000
     61 H62          0.4390     0.9870    -0.9780 h1         1 4CE       0.132700
     62 H63         -8.5010    -2.7880    -1.1350 ha         1 4CE       0.136000
     63 H65         -5.4080    -0.4650     1.9990 ha         1 4CE       0.136000
     64 H67         -3.7230    -1.9980    -0.9680 ha         1 4CE       0.216000
     65 H68         -3.6310     0.4540     0.8850 ha         1 4CE       0.177000
     66 H69         -1.6710     1.4410     0.9900 hn         1 4CE       0.311500
     67 H71          0.4000     2.8360     1.4810 hc         1 4CE       0.077200
     68 H70          1.6470     2.8180     0.3180 hc         1 4CE       0.077200
     69 H73          2.4470     8.2490    -1.7990 h1         1 4CE       0.033367
     70 H74          1.2020     9.4870    -1.5060 h1         1 4CE       0.033367
     71 H72          2.4380     9.1640    -0.2720 h1         1 4CE       0.033367
     72 Cl1          2.1510    -2.1010     3.8000 cl         1 4CE      -0.131000
     73 C40         -1.8400    -0.2120    -0.1980 c          1 4CE       0.607300
     74 Cl2         -8.0110    -0.5290     3.1830 cl         1 4CE      -0.178000
@<TRIPOS>BOND
     1     1     8 ar  
     2     1    22 ar  
     3     1    44 1   
     4     2     3 ar  
     5     2     8 ar  
     6     2    45 1   
     7     3     4 ar  
     8     3    46 1   
     9     4    22 ar  
    10     4    23 1   
    11     5     6 2   
    12     5    22 1   
    13     5    25 1   
    14     6     7 1   
    15     6    47 1   
    16     7    23 1   
    17     7    24 2   
    18     8    20 1   
    19     9    32 1   
    20     9    33 2   
    21     9    48 1   
    22    10    27 ar  
    23    10    28 ar  
    24    10    49 1   
    25    11    12 1   
    26    11    16 1   
    27    11    41 1   
    28    12    13 1   
    29    12    50 1   
    30    12    51 1   
    31    13    14 1   
    32    13    52 1   
    33    13    53 1   
    34    14    15 1   
    35    14    43 1   
    36    15    16 1   
    37    15    54 1   
    38    15    55 1   
    39    16    56 1   
    40    16    57 1   
    41    17    18 1   
    42    17    21 2   
    43    17    26 1   
    44    18    19 1   
    45    18    58 1   
    46    19    20 2   
    47    19    72 1   
    48    20    21 1   
    49    23    59 1   
    50    25    60 1   
    51    26    39 1   
    52    26    40 1   
    53    26    61 1   
    54    27    31 ar  
    55    27    62 1   
    56    28    29 ar  
    57    28    74 1   
    58    29    30 ar  
    59    29    63 1   
    60    30    31 ar  
    61    30    36 1   
    62    31    32 1   
    63    32    35 1   
    64    33    34 1   
    65    34    35 2   
    66    36    37 2   
    67    36    64 1   
    68    37    65 1   
    69    37    73 1   
    70    38    73 2   
    71    39    66 1   
    72    39    73 1   
    73    40    41 1   
    74    40    67 1   
    75    40    68 1   
    76    41    42 2   
    77    43    69 1   
    78    43    70 1   
    79    43    71 1   
@<TRIPOS>SUBSTRUCTURE
     1 4CE         1 TEMP              0 ****  ****    0 ROOT
