@<TRIPOS>MOLECULE
4CE
   74    79     1     0     0
SMALL
abcg2


@<TRIPOS>ATOM
      1 C13          5.1740    -1.0540    -0.0290 ca         1 4CE       0.005000
      2 C17          5.1290    -2.1470     2.1010 ca         1 4CE      -0.035000
      3 C16          6.4780    -2.3990     2.0200 ca         1 4CE      -0.183000
      4 C15          7.2050    -1.9830     0.9010 ca         1 4CE       0.122600
      5 C19          7.3410    -0.8880    -1.2620 cc         1 4CE       0.244900
      6 C20          8.6720    -1.1530    -1.3070 cd         1 4CE      -0.440200
      7 C21          9.3480    -1.8540    -0.2450 c          1 4CE       0.588200
      8 C12          4.4460    -1.4730     1.0740 ca         1 4CE      -0.156500
      9 C34         -6.9140    -2.5600    -2.8450 cc         1 4CE       0.391400
     10 C27         -8.2510    -1.7450     1.3080 ca         1 4CE      -0.086000
     11 N1          -0.1340     4.4570    -0.3680 n          1 4CE      -0.414800
     12 C2           0.6480     5.0390     0.7070 c6         1 4CE       0.097000
     13 C3           1.6540     6.0340     0.1520 c6         1 4CE       0.142800
     14 N4           0.9930     7.0480    -0.6420 n3         1 4CE      -0.715600
     15 C5           0.2520     6.4420    -1.7310 c6         1 4CE       0.142800
     16 C6          -0.7780     5.4610    -1.1980 c6         1 4CE       0.097000
     17 C7           1.1830    -0.1920     0.5920 cc         1 4CE       0.403800
     18 N8           0.8570    -1.1110     1.5210 na         1 4CE      -0.283500
     19 C9           2.0090    -1.7500     1.8740 cc         1 4CE      -0.014000
     20 C10          3.0150    -1.1830     1.1330 cd         1 4CE       0.337500
     21 N11          2.4620    -0.2120     0.3390 nd         1 4CE      -0.677000
     22 C14          6.5450    -1.3010    -0.1310 ca         1 4CE      -0.152800
     23 N22          8.5470    -2.2270     0.8070 ns         1 4CE      -0.380100
     24 O23         10.5460    -2.1170    -0.2410 o          1 4CE      -0.559000
     25 O24          6.6810    -0.2460    -2.2210 oh         1 4CE      -0.516100
     26 C25          0.1870     0.7300    -0.0560 c3         1 4CE       0.100400
     27 C26         -8.0370    -1.7790    -0.0580 ca         1 4CE      -0.097000
     28 C28         -7.1770    -1.4780     2.1440 ca         1 4CE       0.125000
     29 C29         -5.9070    -1.2630     1.6400 ca         1 4CE      -0.089000
     30 C30         -5.6750    -1.3080     0.2660 ca         1 4CE      -0.028800
     31 C31         -6.7670    -1.5670    -0.5670 ca         1 4CE       0.012800
     32 N32         -6.5940    -1.6000    -1.9710 na         1 4CE      -0.003500
     33 N35         -6.6100    -2.1340    -4.0410 nd         1 4CE      -0.376000
     34 N36         -6.1070    -0.9080    -3.8780 nd         1 4CE      -0.033000
     35 N37         -6.0930    -0.5720    -2.6530 nc         1 4CE      -0.184800
     36 C38         -4.3260    -1.1320    -0.2740 ce         1 4CE      -0.084200
     37 C39         -3.3670    -0.4120     0.3080 cf         1 4CE      -0.278200
     38 O41         -1.7040    -0.9350    -1.3120 o          1 4CE      -0.566100
     39 N42         -1.1530     0.4450     0.3930 ns         1 4CE      -0.519900
     40 C43          0.5490     2.1830     0.2300 c3         1 4CE      -0.173400
     41 C44         -0.2130     3.1450    -0.6680 c          1 4CE       0.604100
     42 O45         -0.8510     2.7270    -1.6250 o          1 4CE      -0.591100
     43 C46          1.9260     8.0440    -1.1190 c3         1 4CE       0.152100
     44 H56          4.6660    -0.5290    -0.8250 ha         1 4CE       0.152000
     45 H58          4.6060    -2.4680     2.9900 ha         1 4CE       0.120000
     46 H57          6.9820    -2.9140     2.8280 ha         1 4CE       0.121000
     47 H59          9.2730    -0.8410    -2.1520 ha         1 4CE       0.208000
     48 H66         -7.3360    -3.5140    -2.5760 h5         1 4CE       0.078100
     49 H64         -9.2400    -1.9150     1.7090 ha         1 4CE       0.142000
     50 H48         -0.0270     5.5480     1.4020 h1         1 4CE       0.061200
     51 H47          1.1790     4.2760     1.2680 h1         1 4CE       0.061200
     52 H50          2.1700     6.5120     0.9880 h1         1 4CE       0.042450
     53 H49          2.4170     5.4860    -0.4300 h1         1 4CE       0.042450
     54 H51         -0.2640     7.2240    -2.2920 h1         1 4CE       0.042450
     55 H52          0.9180     5.9190    -2.4400 h1         1 4CE       0.042450
     56 H54         -1.3000     4.9800    -2.0200 h1         1 4CE       0.061200
     57 H53         -1.5180     5.9960    -0.5950 h1         1 4CE       0.061200
     58 H55         -0.0610    -1.2900     1.8980 hn         1 4CE       0.366000
     59 H60          8.9980    -2.7150     1.5690 hn         1 4CE       0.328500
     60 H61          7.2740    -0.0010    -2.9430 ho         1 4CE       0.478000
     61 H62          0.2290     0.5540    -1.1320 h1         1 4CE       0.132700
     62 H63         -8.8680    -1.9580    -0.7280 ha         1 4CE       0.136000
     63 H65         -5.0820    -1.0930     2.3180 ha         1 4CE       0.136000
     64 H67         -4.0920    -1.6350    -1.2050 ha         1 4CE       0.216000
     65 H68         -3.5510     0.1400     1.2240 ha         1 4CE       0.177000
     66 H69         -1.4930     0.9410     1.2030 hn         1 4CE       0.311500
     67 H71          0.3780     2.3950     1.2880 hc         1 4CE       0.077200
     68 H70          1.6210     2.3170     0.0630 hc         1 4CE       0.077200
     69 H73          2.7080     7.6280    -1.7730 h1         1 4CE       0.033367
     70 H74          1.3950     8.8110    -1.6850 h1         1 4CE       0.033367
     71 H72          2.4190     8.5280    -0.2760 h1         1 4CE       0.033367
     72 CL1          1.9760    -3.0260     2.9980 cl         1 4CE      -0.131000
     73 C40         -2.0140    -0.3350    -0.2960 c          1 4CE       0.607300
     74 CL2         -7.4240    -1.4270     3.8520 cl         1 4CE      -0.178000
@<TRIPOS>BOND
     1     1     8 ar  
     2     1    22 ar  
     3     1    44 1   
     4     2     3 ar  
     5     2     8 ar  
     6     2    45 1   
     7     3     4 ar  
     8     3    46 1   
     9     4    22 ar  
    10     4    23 1   
    11     5     6 2   
    12     5    22 1   
    13     5    25 1   
    14     6     7 1   
    15     6    47 1   
    16     7    23 1   
    17     7    24 2   
    18     8    20 1   
    19     9    32 1   
    20     9    33 2   
    21     9    48 1   
    22    10    27 ar  
    23    10    28 ar  
    24    10    49 1   
    25    11    12 1   
    26    11    16 1   
    27    11    41 1   
    28    12    13 1   
    29    12    50 1   
    30    12    51 1   
    31    13    14 1   
    32    13    52 1   
    33    13    53 1   
    34    14    15 1   
    35    14    43 1   
    36    15    16 1   
    37    15    54 1   
    38    15    55 1   
    39    16    56 1   
    40    16    57 1   
    41    17    18 1   
    42    17    21 2   
    43    17    26 1   
    44    18    19 1   
    45    18    58 1   
    46    19    20 2   
    47    19    72 1   
    48    20    21 1   
    49    23    59 1   
    50    25    60 1   
    51    26    39 1   
    52    26    40 1   
    53    26    61 1   
    54    27    31 ar  
    55    27    62 1   
    56    28    29 ar  
    57    28    74 1   
    58    29    30 ar  
    59    29    63 1   
    60    30    31 ar  
    61    30    36 1   
    62    31    32 1   
    63    32    35 1   
    64    33    34 1   
    65    34    35 2   
    66    36    37 2   
    67    36    64 1   
    68    37    65 1   
    69    37    73 1   
    70    38    73 2   
    71    39    66 1   
    72    39    73 1   
    73    40    41 1   
    74    40    67 1   
    75    40    68 1   
    76    41    42 2   
    77    43    69 1   
    78    43    70 1   
    79    43    71 1   
@<TRIPOS>SUBSTRUCTURE
     1 4CE         1 TEMP              0 ****  ****    0 ROOT
