@<TRIPOS>MOLECULE
4CF
   23    23     1     0     0
SMALL
No Charge or Current Charge


@<TRIPOS>ATOM
      1 C           30.6450     8.3790     8.9360 c          1 4CF       0.714000
      2 N           32.3160     9.7250    10.4590 n8         1 4CF      -0.971200
      3 O           31.0990     7.6410     8.0700 o          1 4CF      -0.719000
      4 C1          27.9810     3.1440    11.7580 cg         1 4CF       0.355000
      5 N1          27.4720     2.0940    11.8130 n1         1 4CF      -0.517000
      6 CA          31.4470     8.5020    10.3020 c3         1 4CF       0.020500
      7 CB          30.5120     8.3470    11.5310 c3         1 4CF      -0.026100
      8 CG          29.8420     6.9780    11.5900 ca         1 4CF      -0.000300
      9 CZ          28.6090     4.4370    11.7010 ca         1 4CF      -0.058000
     10 CD1         28.4750     6.8360    11.2820 ca         1 4CF      -0.103500
     11 CD2         30.5870     5.8400    11.9560 ca         1 4CF      -0.103500
     12 CE1         27.8610     5.5730    11.3360 ca         1 4CF      -0.072500
     13 CE2         29.9750     4.5750    12.0110 ca         1 4CF      -0.072500
     14 OXT         29.6410     9.0610     8.7690 o          1 4CF      -0.719000
     15 HN          32.8770     9.6370    11.3150 hn         1 4CF       0.365000
     16 HNA         33.0150     9.7400     9.7060 hn         1 4CF       0.365000
     17 HA          32.1430     7.6530    10.3270 h1         1 4CF       0.005700
     18 HB          31.0950     8.4940    12.4490 hc         1 4CF       0.040200
     19 HBA         29.7590     9.1450    11.5230 hc         1 4CF       0.040200
     20 HD1         27.8880     7.7050    10.9960 ha         1 4CF       0.121000
     21 HD2         31.6430     5.9360    12.1980 ha         1 4CF       0.121000
     22 HE1         26.8040     5.4790    11.0940 ha         1 4CF       0.107500
     23 HE2         30.5650     3.7060    12.2950 ha         1 4CF       0.107500
@<TRIPOS>BOND
     1     1     3 1   
     2     1     6 1   
     3     1    14 1   
     4     2     6 1   
     5     2    15 1   
     6     2    16 1   
     7     4     5 3   
     8     4     9 1   
     9     6     7 1   
    10     6    17 1   
    11     7     8 1   
    12     7    18 1   
    13     7    19 1   
    14     8    10 ar  
    15     8    11 ar  
    16     9    12 ar  
    17     9    13 ar  
    18    10    12 ar  
    19    10    20 1   
    20    11    13 ar  
    21    11    21 1   
    22    12    22 1   
    23    13    23 1   
@<TRIPOS>SUBSTRUCTURE
     1 4CF         1 TEMP              0 ****  ****    0 ROOT
