@<TRIPOS>MOLECULE
4CF
   23    23     1     0     0
SMALL
abcg2


@<TRIPOS>ATOM
      1 C           30.6060     8.3670     9.0390 c          1 4CF       0.714000
      2 N           32.1610     9.7290    10.4240 n8         1 4CF      -0.971200
      3 O           30.6380     7.2860     8.4200 o          1 4CF      -0.719000
      4 C1          27.9980     3.1950    11.6890 cg         1 4CF       0.355000
      5 N1          27.4910     2.1590    11.7090 n1         1 4CF      -0.517000
      6 CA          31.4780     8.4470    10.3160 c3         1 4CF       0.020500
      7 CB          30.5840     8.2890    11.5580 c3         1 4CF      -0.026100
      8 CG          29.8910     6.9630    11.6110 ca         1 4CF      -0.000300
      9 CZ          28.6350     4.4700    11.6630 ca         1 4CF      -0.058000
     10 CD1         28.5610     6.8280    11.2170 ca         1 4CF      -0.103500
     11 CD2         30.5780     5.8260    12.0390 ca         1 4CF      -0.103500
     12 CE1         27.9300     5.5970    11.2410 ca         1 4CF      -0.072500
     13 CE2         29.9660     4.5870    12.0660 ca         1 4CF      -0.072500
     14 OXT         29.9250     9.3730     8.7620 o          1 4CF      -0.719000
     15 HN          32.8280     9.6810    11.1850 hn         1 4CF       0.365000
     16 HNA         32.7140     9.8920     9.5910 hn         1 4CF       0.365000
     17 HA          32.1750     7.5960    10.2980 h1         1 4CF       0.005700
     18 HB          31.2060     8.4050    12.4520 hc         1 4CF       0.040200
     19 HBA         29.8540     9.1020    11.5660 hc         1 4CF       0.040200
     20 HD1         28.0130     7.6990    10.8820 ha         1 4CF       0.121000
     21 HD2         31.6100     5.9140    12.3570 ha         1 4CF       0.121000
     22 HE1         26.8960     5.5070    10.9330 ha         1 4CF       0.107500
     23 HE2         30.5120     3.7150    12.3990 ha         1 4CF       0.107500
@<TRIPOS>BOND
     1     1     3 1   
     2     1     6 1   
     3     1    14 1   
     4     2     6 1   
     5     2    15 1   
     6     2    16 1   
     7     4     5 3   
     8     4     9 1   
     9     6     7 1   
    10     6    17 1   
    11     7     8 1   
    12     7    18 1   
    13     7    19 1   
    14     8    10 ar  
    15     8    11 ar  
    16     9    12 ar  
    17     9    13 ar  
    18    10    12 ar  
    19    10    20 1   
    20    11    13 ar  
    21    11    21 1   
    22    12    22 1   
    23    13    23 1   
@<TRIPOS>SUBSTRUCTURE
     1 4CF         1 TEMP              0 ****  ****    0 ROOT
