@<TRIPOS>MOLECULE
4CG
   30    30     1     0     0
SMALL
No Charge or Current Charge


@<TRIPOS>ATOM
      1 C10         -2.4200     0.6670    -0.5960 c2         1 4CG      -0.105400
      2 C13         -3.8920     0.7600     1.3600 c5         1 4CG      -0.059400
      3 O           -3.7760    -1.9680     0.0600 o          1 4CG      -0.747000
      4 C           -2.8730    -1.5050     0.7440 c          1 4CG       0.728000
      5 C14         -2.6320     0.0340     0.7790 c5         1 4CG      -0.156500
      6 C12         -3.8550     2.1360     0.6350 c5         1 4CG      -0.077400
      7 C11         -3.5010     1.7050    -0.8100 c5         1 4CG      -0.034200
      8 C09         -1.3590     0.4990    -1.4040 c2         1 4CG      -0.198200
      9 CA          -0.1470    -0.3750    -1.1450 c3         1 4CG       0.158700
     10 N            0.3180    -0.9420    -2.4370 n8         1 4CG      -1.003200
     11 C03          0.9770     0.4070    -0.3890 c3         1 4CG       0.221600
     12 O04          2.1250    -0.4450    -0.2300 os         1 4CG      -0.594400
     13 P05          3.4610     0.1590     0.4320 p5         1 4CG       1.290900
     14 O06          3.9780     1.2790    -0.4010 o          1 4CG      -0.938500
     15 O07          3.1710     0.6380     1.8110 o          1 4CG      -0.938500
     16 O08          4.4880    -0.9160     0.4950 o          1 4CG      -0.938500
     17 H1          -4.8220     0.2320     1.1200 hc         1 4CG       0.019700
     18 H2          -3.8520     0.8580     2.4510 hc         1 4CG       0.019700
     19 H4          -1.7630     0.2290     1.4160 hc         1 4CG       0.080700
     20 H5          -4.8100     2.6700     0.6930 hc         1 4CG       0.004700
     21 H6          -3.0820     2.7890     1.0570 hc         1 4CG       0.004700
     22 H7          -3.1620     2.5440    -1.4280 hc         1 4CG       0.022200
     23 H8          -4.3680     1.2580    -1.3110 hc         1 4CG       0.022200
     24 H9          -1.2960     1.0820    -2.3230 ha         1 4CG       0.121000
     25 H10         -0.4410    -1.2140    -0.4970 h1         1 4CG       0.103700
     26 H11          0.6010    -0.1670    -3.0450 hn         1 4CG       0.378000
     27 H12          1.2060    -1.4210    -2.2460 hn         1 4CG       0.378000
     28 H14          1.2400     1.3060    -0.9630 h1         1 4CG      -0.006800
     29 H15          0.5950     0.7270     0.5900 h1         1 4CG      -0.006800
     30 O1          -2.1360    -2.2260     1.4020 o          1 4CG      -0.747000
@<TRIPOS>BOND
     1     1     5 1   
     2     1     7 1   
     3     1     8 2   
     4     2     5 1   
     5     2     6 1   
     6     2    17 1   
     7     2    18 1   
     8     3     4 1   
     9     4     5 1   
    10     4    30 1   
    11     5    19 1   
    12     6     7 1   
    13     6    20 1   
    14     6    21 1   
    15     7    22 1   
    16     7    23 1   
    17     8     9 1   
    18     8    24 1   
    19     9    10 1   
    20     9    11 1   
    21     9    25 1   
    22    10    26 1   
    23    10    27 1   
    24    11    12 1   
    25    11    28 1   
    26    11    29 1   
    27    12    13 1   
    28    13    14 1   
    29    13    15 1   
    30    13    16 1   
@<TRIPOS>SUBSTRUCTURE
     1 4CG         1 TEMP              0 ****  ****    0 ROOT
