@<TRIPOS>MOLECULE
4CG
   30    30     1     0     0
SMALL
bcc


@<TRIPOS>ATOM
      1 C10         -2.3690     0.6560    -0.5860 c2         1 4CG      -0.105400
      2 C13         -3.6640     0.8180     1.4510 c5         1 4CG      -0.059400
      3 O           -4.0510    -1.6760    -0.1180 o          1 4CG      -0.852300
      4 C           -3.0160    -1.5000     0.5550 c          1 4CG       0.938600
      5 C14         -2.5740    -0.0320     0.7500 c5         1 4CG      -0.156500
      6 C12         -3.8120     2.0920     0.6110 c5         1 4CG      -0.077400
      7 C11         -3.5070     1.6110    -0.8050 c5         1 4CG      -0.034200
      8 C09         -1.3130     0.5240    -1.3850 c2         1 4CG      -0.148200
      9 CA          -0.1290    -0.3670    -1.1330 c3         1 4CG       0.158700
     10 N            0.3370    -0.9300    -2.3980 n8         1 4CG      -0.892800
     11 C03          0.9510     0.4070    -0.3730 c3         1 4CG       0.198400
     12 O04          2.0400    -0.4330    -0.1290 os         1 4CG      -0.571200
     13 P05          3.4520     0.2620     0.5270 p5         1 4CG       1.290900
     14 O06          3.9210     1.2760    -0.5100 o          1 4CG      -0.938500
     15 O07          3.0060     0.8840     1.8470 o          1 4CG      -0.938500
     16 O08          4.3340    -0.9740     0.6640 o          1 4CG      -0.938500
     17 H1          -4.6120     0.2770     1.4560 hc         1 4CG       0.019700
     18 H2          -3.4090     1.0330     2.4890 hc         1 4CG       0.019700
     19 H4          -1.6460    -0.0080     1.3280 hc         1 4CG       0.080700
     20 H5          -4.7970     2.5510     0.7100 hc         1 4CG       0.004700
     21 H6          -3.0720     2.8380     0.9130 hc         1 4CG       0.004700
     22 H7          -3.2760     2.4100    -1.5120 hc         1 4CG       0.022200
     23 H8          -4.3710     1.0610    -1.1940 hc         1 4CG       0.022200
     24 H9          -1.2640     1.1370    -2.2840 ha         1 4CG       0.071000
     25 H10         -0.4430    -1.2040    -0.5000 h1         1 4CG       0.103700
     26 H11          0.6140    -0.1670    -3.0090 hn         1 4CG       0.322800
     27 H12          1.1950    -1.4380    -2.2170 hn         1 4CG       0.322800
     28 H14          1.2420     1.2860    -0.9700 h1         1 4CG      -0.006800
     29 H15          0.5180     0.7930     0.5620 h1         1 4CG      -0.006800
     30 O1          -2.3140    -2.3880     1.0800 o          1 4CG      -0.852300
@<TRIPOS>BOND
     1     1     5 1   
     2     1     7 1   
     3     1     8 2   
     4     2     5 1   
     5     2     6 1   
     6     2    17 1   
     7     2    18 1   
     8     3     4 1   
     9     4     5 1   
    10     4    30 1   
    11     5    19 1   
    12     6     7 1   
    13     6    20 1   
    14     6    21 1   
    15     7    22 1   
    16     7    23 1   
    17     8     9 1   
    18     8    24 1   
    19     9    10 1   
    20     9    11 1   
    21     9    25 1   
    22    10    26 1   
    23    10    27 1   
    24    11    12 1   
    25    11    28 1   
    26    11    29 1   
    27    12    13 1   
    28    13    14 1   
    29    13    15 1   
    30    13    16 1   
@<TRIPOS>SUBSTRUCTURE
     1 4CG         1 TEMP              0 ****  ****    0 ROOT
