@<TRIPOS>MOLECULE
4CH
   13    13     1     0     0
SMALL
No Charge or Current Charge


@<TRIPOS>ATOM
      1 Cl9         -2.6580     0.1150    -0.1090 cl         1 4CH      -0.205000
      2 C4          -0.9040     0.0290    -0.0060 ca         1 4CH       0.080000
      3 C5          -0.1470     1.2100     0.0870 ca         1 4CH      -0.062500
      4 C6           1.2560     1.1410     0.1690 ca         1 4CH      -0.169500
      5 C1           1.8990    -0.1090     0.1580 ca         1 4CH       0.142100
      6 O7           3.2560    -0.1860     0.2380 oh         1 4CH      -0.530100
      7 C2           1.1420    -1.2880     0.0650 ca         1 4CH      -0.169500
      8 C3          -0.2610    -1.2210    -0.0170 ca         1 4CH      -0.062500
      9 H5          -0.6480     2.1750     0.0950 ha         1 4CH       0.129500
     10 H6           1.8350     2.0590     0.2410 ha         1 4CH       0.125000
     11 HO7          3.6170     0.7240     0.2960 ho         1 4CH       0.467000
     12 H2           1.6410    -2.2550     0.0570 ha         1 4CH       0.125000
     13 H3          -0.8490    -2.1340    -0.0900 ha         1 4CH       0.129500
@<TRIPOS>BOND
     1     1     2 1   
     2     2     3 ar  
     3     2     8 ar  
     4     3     4 ar  
     5     3     9 1   
     6     4     5 ar  
     7     4    10 1   
     8     5     6 1   
     9     5     7 ar  
    10     6    11 1   
    11     7     8 ar  
    12     7    12 1   
    13     8    13 1   
@<TRIPOS>SUBSTRUCTURE
     1 4CH         1 TEMP              0 ****  ****    0 ROOT
