@<TRIPOS>MOLECULE
4CH
   13    13     1     0     0
SMALL
bcc


@<TRIPOS>ATOM
      1 CL9         -2.6160     0.1020    -0.1070 cl         1 4CH      -0.113400
      2 C4          -0.8840     0.0290    -0.0050 ca         1 4CH      -0.011600
      3 C5          -0.1510     1.2000     0.0860 ca         1 4CH      -0.080500
      4 C6           1.2320     1.1410     0.1670 ca         1 4CH      -0.187500
      5 C1           1.8840    -0.0900     0.1570 ca         1 4CH       0.142100
      6 O7           3.2230    -0.2060     0.2310 oh         1 4CH      -0.491100
      7 C2           1.1350    -1.2620     0.0660 ca         1 4CH      -0.187500
      8 C3          -0.2460    -1.2030    -0.0150 ca         1 4CH      -0.080500
      9 H5          -0.6460     2.1620     0.0940 ha         1 4CH       0.147500
     10 H6           1.7990     2.0620     0.2390 ha         1 4CH       0.143000
     11 HO7          3.6350     0.6630     0.2990 ho         1 4CH       0.428000
     12 H2           1.6340    -2.2220     0.0580 ha         1 4CH       0.143000
     13 H3          -0.8190    -2.1170    -0.0870 ha         1 4CH       0.147500
@<TRIPOS>BOND
     1     1     2 1   
     2     2     3 ar  
     3     2     8 ar  
     4     3     4 ar  
     5     3     9 1   
     6     4     5 ar  
     7     4    10 1   
     8     5     6 1   
     9     5     7 ar  
    10     6    11 1   
    11     7     8 ar  
    12     7    12 1   
    13     8    13 1   
@<TRIPOS>SUBSTRUCTURE
     1 4CH         1 TEMP              0 ****  ****    0 ROOT
