@<TRIPOS>MOLECULE
4CI
   41    45     1     0     0
SMALL
No Charge or Current Charge


@<TRIPOS>ATOM
      1 O29        -21.4390   -25.3350    26.5100 o          1 4CI      -0.474000
      2 C27        -21.5160   -24.1300    26.3240 c          1 4CI       0.669700
      3 C26        -20.4310   -23.1440    26.5220 ca         1 4CI      -0.166600
      4 C25        -19.1080   -23.3340    26.9510 ca         1 4CI      -0.075000
      5 C12        -18.2690   -22.2020    27.0540 ca         1 4CI       0.035600
      6 N13        -16.9330   -22.3830    27.4850 ns         1 4CI      -0.308100
      7 C14        -15.9040   -21.4990    27.6800 cs         1 4CI       0.351200
      8 S24        -14.3920   -21.9890    28.2070 s          1 4CI      -0.494400
      9 C11        -18.7800   -20.9190    26.7250 ca         1 4CI      -0.121000
     10 C10        -20.1160   -20.7650    26.2970 ca         1 4CI      -0.049000
     11 C9         -20.9230   -21.9070    26.2050 ca         1 4CI      -0.109300
     12 O28        -22.6440   -23.4660    25.8910 os         1 4CI      -0.415100
     13 C8         -22.3690   -22.0330    25.7820 c5         1 4CI       0.368900
     14 C7         -23.2950   -21.3000    26.7410 ca         1 4CI      -0.202800
     15 C4         -23.2670   -21.5830    28.1240 ca         1 4CI      -0.011500
     16 C3         -24.1170   -20.8980    29.0090 ca         1 4CI      -0.202500
     17 C30        -22.5600   -21.6250    24.3280 ca         1 4CI      -0.202800
     18 C37        -21.7990   -22.2320    23.3060 ca         1 4CI      -0.011500
     19 C36        -21.9710   -21.8470    21.9660 ca         1 4CI      -0.202500
     20 C34        -22.9000   -20.8540    21.6340 ca         1 4CI       0.189100
     21 O35        -23.0580   -20.4890    20.3320 oh         1 4CI      -0.523600
     22 C33        -23.6600   -20.2440    22.6390 ca         1 4CI      -0.211000
     23 C31        -23.4900   -20.6270    23.9790 ca         1 4CI       0.198100
     24 O32        -24.2540   -20.0030    24.9330 os         1 4CI      -0.220200
     25 C6         -24.1870   -20.3190    26.2670 ca         1 4CI       0.198100
     26 C5         -25.0340   -19.6370    27.1530 ca         1 4CI      -0.211000
     27 C2         -25.0000   -19.9250    28.5210 ca         1 4CI       0.189100
     28 O1         -25.8260   -19.2560    29.3710 oh         1 4CI      -0.523600
     29 H1         -18.7440   -24.3300    27.1960 ha         1 4CI       0.145000
     30 H2         -16.6870   -23.3450    27.6900 hn         1 4CI       0.340500
     31 H3         -16.1570   -20.4610    27.4630 h5         1 4CI       0.050200
     32 H6         -18.1540   -20.0350    26.7970 ha         1 4CI       0.128000
     33 H7         -20.5110   -19.7830    26.0450 ha         1 4CI       0.138000
     34 H8         -22.5840   -22.3340    28.5170 ha         1 4CI       0.121500
     35 H9         -24.0810   -21.1290    30.0710 ha         1 4CI       0.130500
     36 H10        -21.0700   -23.0040    23.5470 ha         1 4CI       0.121500
     37 H11        -21.3810   -22.3190    21.1860 ha         1 4CI       0.130500
     38 H12        -23.7430   -19.7900    20.2860 ho         1 4CI       0.473000
     39 H13        -24.3840   -19.4720    22.3950 ha         1 4CI       0.143000
     40 H14        -25.7170   -18.8830    26.7750 ha         1 4CI       0.143000
     41 H15        -25.6670   -19.5860    30.2800 ho         1 4CI       0.473000
@<TRIPOS>BOND
     1     1     2 2   
     2     2     3 1   
     3     2    12 1   
     4     3     4 ar  
     5     3    11 ar  
     6     4     5 ar  
     7     4    29 1   
     8     5     6 1   
     9     5     9 ar  
    10     6     7 1   
    11     6    30 1   
    12     7     8 2   
    13     7    31 1   
    14     9    10 ar  
    15     9    32 1   
    16    10    11 ar  
    17    10    33 1   
    18    11    13 1   
    19    12    13 1   
    20    13    14 1   
    21    13    17 1   
    22    14    15 ar  
    23    14    25 ar  
    24    15    16 ar  
    25    15    34 1   
    26    16    27 ar  
    27    16    35 1   
    28    17    18 ar  
    29    17    23 ar  
    30    18    19 ar  
    31    18    36 1   
    32    19    20 ar  
    33    19    37 1   
    34    20    21 1   
    35    20    22 ar  
    36    21    38 1   
    37    22    23 ar  
    38    22    39 1   
    39    23    24 1   
    40    24    25 1   
    41    25    26 ar  
    42    26    27 ar  
    43    26    40 1   
    44    27    28 1   
    45    28    41 1   
@<TRIPOS>SUBSTRUCTURE
     1 4CI         1 TEMP              0 ****  ****    0 ROOT
