@<TRIPOS>MOLECULE
4CI
   41    45     1     0     0
SMALL
abcg2


@<TRIPOS>ATOM
      1 O29        -21.5430   -25.2750    26.4510 o          1 4CI      -0.474000
      2 C27        -21.5200   -24.0830    26.3120 c          1 4CI       0.669700
      3 C26        -20.4160   -23.1380    26.5430 ca         1 4CI      -0.166600
      4 C25        -19.1280   -23.3840    26.9800 ca         1 4CI      -0.075000
      5 C12        -18.2760   -22.2930    27.1130 ca         1 4CI       0.035600
      6 N13        -16.9730   -22.5380    27.5630 ns         1 4CI      -0.308100
      7 C14        -15.9190   -21.7290    27.4950 cs         1 4CI       0.351200
      8 S24        -14.4200   -22.0990    28.0550 s          1 4CI      -0.494400
      9 C11        -18.7340   -21.0010    26.8180 ca         1 4CI      -0.121000
     10 C10        -20.0270   -20.7840    26.3720 ca         1 4CI      -0.049000
     11 C9         -20.8670   -21.8750    26.2390 ca         1 4CI      -0.109300
     12 O28        -22.5810   -23.3840    25.8910 os         1 4CI      -0.415100
     13 C8         -22.3040   -21.9500    25.7990 c5         1 4CI       0.368900
     14 C7         -23.2380   -21.2280    26.7230 ca         1 4CI      -0.202800
     15 C4         -23.1230   -21.3450    28.1080 ca         1 4CI      -0.011500
     16 C3         -24.0120   -20.7390    28.9680 ca         1 4CI      -0.202500
     17 C30        -22.5040   -21.5170    24.3770 ca         1 4CI      -0.202800
     18 C37        -21.6340   -21.9290    23.3650 ca         1 4CI      -0.011500
     19 C36        -21.8340   -21.5860    22.0470 ca         1 4CI      -0.202500
     20 C34        -22.9390   -20.8000    21.7020 ca         1 4CI       0.189100
     21 O35        -23.0950   -20.4850    20.4080 oh         1 4CI      -0.523600
     22 C33        -23.8180   -20.3740    22.6860 ca         1 4CI      -0.211000
     23 C31        -23.5900   -20.7360    24.0100 ca         1 4CI       0.198100
     24 O32        -24.4900   -20.2710    24.9060 os         1 4CI      -0.220200
     25 C6         -24.2880   -20.4640    26.2300 ca         1 4CI       0.198100
     26 C5         -25.1980   -19.8370    27.0720 ca         1 4CI      -0.211000
     27 C2         -25.0640   -19.9780    28.4450 ca         1 4CI       0.189100
     28 O1         -25.9640   -19.3590    29.2230 oh         1 4CI      -0.523600
     29 H1         -18.7920   -24.3890    27.2090 ha         1 4CI       0.145000
     30 H2         -16.8040   -23.4550    27.9580 hn         1 4CI       0.340500
     31 H3         -16.1110   -20.7710    27.0210 h5         1 4CI       0.050200
     32 H6         -18.0870   -20.1440    26.9480 ha         1 4CI       0.128000
     33 H7         -20.3620   -19.7800    26.1490 ha         1 4CI       0.138000
     34 H8         -22.3140   -21.9290    28.5300 ha         1 4CI       0.121500
     35 H9         -23.8950   -20.8520    30.0390 ha         1 4CI       0.130500
     36 H10        -20.7720   -22.5360    23.6160 ha         1 4CI       0.121500
     37 H11        -21.1460   -21.9160    21.2800 ha         1 4CI       0.130500
     38 H12        -23.8800   -19.9410    20.2780 ho         1 4CI       0.473000
     39 H13        -24.6760   -19.7580    22.4420 ha         1 4CI       0.143000
     40 H14        -26.0020   -19.2440    26.6550 ha         1 4CI       0.143000
     41 H15        -25.7800   -19.5220    30.1560 ho         1 4CI       0.473000
@<TRIPOS>BOND
     1     1     2 2   
     2     2     3 1   
     3     2    12 1   
     4     3     4 ar  
     5     3    11 ar  
     6     4     5 ar  
     7     4    29 1   
     8     5     6 1   
     9     5     9 ar  
    10     6     7 1   
    11     6    30 1   
    12     7     8 2   
    13     7    31 1   
    14     9    10 ar  
    15     9    32 1   
    16    10    11 ar  
    17    10    33 1   
    18    11    13 1   
    19    12    13 1   
    20    13    14 1   
    21    13    17 1   
    22    14    15 ar  
    23    14    25 ar  
    24    15    16 ar  
    25    15    34 1   
    26    16    27 ar  
    27    16    35 1   
    28    17    18 ar  
    29    17    23 ar  
    30    18    19 ar  
    31    18    36 1   
    32    19    20 ar  
    33    19    37 1   
    34    20    21 1   
    35    20    22 ar  
    36    21    38 1   
    37    22    23 ar  
    38    22    39 1   
    39    23    24 1   
    40    24    25 1   
    41    25    26 ar  
    42    26    27 ar  
    43    26    40 1   
    44    27    28 1   
    45    28    41 1   
@<TRIPOS>SUBSTRUCTURE
     1 4CI         1 TEMP              0 ****  ****    0 ROOT
