@<TRIPOS>MOLECULE
4CJ
   37    39     1     0     0
SMALL
No Charge or Current Charge


@<TRIPOS>ATOM
      1 N1          21.5940    38.7920    11.8110 ns         1 4CJ      -0.147000
      2 C4          22.2390    40.0730     8.3220 ca         1 4CJ      -0.056500
      3 C5          22.3260    39.9460     9.7200 ca         1 4CJ      -0.159000
      4 C6          21.5600    38.9780    10.4020 ca         1 4CJ      -0.010000
      5 C7          22.3040    39.4240    12.8240 c          1 4CJ       0.609100
      6 C8          22.0140    38.8760    14.2190 c3         1 4CJ      -0.182100
      7 C10         21.9990    40.2820     5.3350 cc         1 4CJ      -0.287000
      8 C13         18.1050    38.1150     1.5050 ca         1 4CJ      -0.179000
      9 C15         18.7820    38.4460    -0.8050 ca         1 4CJ      -0.180000
     10 C17         20.4470    38.4600     0.9710 ca         1 4CJ      -0.204000
     11 C1          20.7100    38.1450     9.6550 ca         1 4CJ      -0.159000
     12 C11         20.5430    38.8360     4.0960 cc         1 4CJ       0.701300
     13 C12         19.4390    38.2460     1.9220 ca         1 4CJ       0.341000
     14 C14         17.7700    38.2190     0.1430 ca         1 4CJ      -0.050000
     15 C16         20.1150    38.5620    -0.3860 ca         1 4CJ       0.207000
     16 C2          20.6220    38.2690     8.2580 ca         1 4CJ      -0.056500
     17 C3          21.3860    39.2370     7.5670 ca         1 4CJ      -0.151500
     18 C9          21.2930    39.3690     6.0940 cd         1 4CJ       0.397500
     19 F1          21.0890    38.7680    -1.3000 f          1 4CJ      -0.175000
     20 N2          20.4460    38.5430     5.3650 nd         1 4CJ      -0.729000
     21 O1          23.0980    40.3410    12.6540 o          1 4CJ      -0.579100
     22 S1          21.6120    40.1370     3.6450 ss         1 4CJ      -0.053400
     23 H1          20.9830    38.0550    12.1380 hn         1 4CJ       0.149000
     24 H2          19.0610    37.6260     3.8290 hn         1 4CJ       0.510000
     25 H3          22.8470    40.8320     7.8360 ha         1 4CJ       0.122500
     26 H4          22.9960    40.6130    10.2510 ha         1 4CJ       0.128000
     27 H5          22.5830    39.3890    15.0020 hc         1 4CJ       0.063700
     28 H6          20.9350    38.9260    14.4050 hc         1 4CJ       0.063700
     29 H7          22.2000    37.7960    14.2240 hc         1 4CJ       0.063700
     30 H8          22.7130    41.0290     5.6510 h4         1 4CJ       0.163000
     31 H10         18.5360    38.5270    -1.8610 ha         1 4CJ       0.137000
     32 H11         21.4860    38.5300     1.2720 ha         1 4CJ       0.145000
     33 H12         20.1090    37.3910    10.1580 ha         1 4CJ       0.128000
     34 H13         16.7340    38.1230    -0.1740 ha         1 4CJ       0.120000
     35 H14         19.9520    37.6040     7.7170 ha         1 4CJ       0.122500
     36 N3          19.7400    38.1310     3.2700 nu         1 4CJ      -0.933900
     37 H9          17.3210    37.9410     2.2370 ha         1 4CJ       0.121000
@<TRIPOS>BOND
     1     1     4 1   
     2     1     5 1   
     3     1    23 1   
     4     2     3 ar  
     5     2    17 ar  
     6     2    25 1   
     7     3     4 ar  
     8     3    26 1   
     9     4    11 ar  
    10     5     6 1   
    11     5    21 2   
    12     6    27 1   
    13     6    28 1   
    14     6    29 1   
    15     7    18 2   
    16     7    22 1   
    17     7    30 1   
    18     8    13 ar  
    19     8    14 ar  
    20     8    37 1   
    21     9    14 ar  
    22     9    15 ar  
    23     9    31 1   
    24    10    13 ar  
    25    10    15 ar  
    26    10    32 1   
    27    11    16 ar  
    28    11    33 1   
    29    12    20 2   
    30    12    22 1   
    31    12    36 1   
    32    13    36 1   
    33    14    34 1   
    34    15    19 1   
    35    16    17 ar  
    36    16    35 1   
    37    17    18 1   
    38    18    20 1   
    39    24    36 1   
@<TRIPOS>SUBSTRUCTURE
     1 4CJ         1 TEMP              0 ****  ****    0 ROOT
