@<TRIPOS>MOLECULE
4CJ
   37    39     1     0     0
SMALL
bcc


@<TRIPOS>ATOM
      1 N1          21.5580    38.8030    11.7740 ns         1 4CJ      -0.473100
      2 C4          22.2940    39.9450     8.3140 ca         1 4CJ      -0.074500
      3 C5          22.4100    39.8260     9.6890 ca         1 4CJ      -0.177000
      4 C6          21.5420    38.9860    10.3910 ca         1 4CJ       0.082600
      5 C7          22.4270    39.2870    12.7020 c          1 4CJ       0.676100
      6 C8          22.0890    38.9110    14.1230 c3         1 4CJ      -0.182100
      7 C10         21.7690    40.3640     5.3740 cc         1 4CJ      -0.225400
      8 C13         18.1940    37.8490     1.4140 ca         1 4CJ      -0.197000
      9 C15         18.9420    38.4660    -0.7980 ca         1 4CJ      -0.198000
     10 C17         20.4370    38.6750     1.1070 ca         1 4CJ      -0.222000
     11 C1          20.5780    38.2760     9.6700 ca         1 4CJ      -0.177000
     12 C11         20.3800    38.7780     4.1800 cc         1 4CJ       0.701300
     13 C12         19.4320    38.2090     1.9530 ca         1 4CJ       0.202600
     14 C14         17.9640    37.9710     0.0560 ca         1 4CJ      -0.068000
     15 C16         20.1570    38.8060    -0.2410 ca         1 4CJ       0.171900
     16 C2          20.4760    38.4020     8.2990 ca         1 4CJ      -0.074500
     17 C3          21.3300    39.2480     7.5890 ca         1 4CJ      -0.151500
     18 C9          21.1950    39.3950     6.1360 cd         1 4CJ       0.462800
     19 F1          21.1280    39.2710    -1.0410 f          1 4CJ      -0.139900
     20 N2          20.4140    38.5050     5.4470 nd         1 4CJ      -0.729000
     21 O1          23.3890    39.9830    12.4320 o          1 4CJ      -0.579100
     22 S1          21.3220    40.1670     3.7220 ss         1 4CJ      -0.198300
     23 H1          20.8160    38.2180    12.1270 hn         1 4CJ       0.315500
     24 H2          18.9760    37.4260     3.7890 hn         1 4CJ       0.454800
     25 H3          22.9910    40.5990     7.8050 ha         1 4CJ       0.140500
     26 H4          23.1750    40.3850    10.2000 ha         1 4CJ       0.146000
     27 H5          22.9960    38.6110    14.6450 hc         1 4CJ       0.063700
     28 H6          21.6920    39.7880    14.6360 hc         1 4CJ       0.063700
     29 H7          21.3560    38.1110    14.2070 hc         1 4CJ       0.063700
     30 H8          22.4160    41.1750     5.6680 h4         1 4CJ       0.181000
     31 H10         18.7650    38.5780    -1.8590 ha         1 4CJ       0.155000
     32 H11         21.4370    38.8940     1.4560 ha         1 4CJ       0.163000
     33 H12         19.8940    37.6150    10.1920 ha         1 4CJ       0.146000
     34 H13         17.0000    37.6880    -0.3460 ha         1 4CJ       0.138000
     35 H14         19.7160    37.8400     7.7740 ha         1 4CJ       0.140500
     36 N3          19.6200    38.0480     3.3210 nu         1 4CJ      -0.740300
     37 H9          17.4120    37.4800     2.0660 ha         1 4CJ       0.139000
@<TRIPOS>BOND
     1     1     4 1   
     2     1     5 1   
     3     1    23 1   
     4     2     3 ar  
     5     2    17 ar  
     6     2    25 1   
     7     3     4 ar  
     8     3    26 1   
     9     4    11 ar  
    10     5     6 1   
    11     5    21 2   
    12     6    27 1   
    13     6    28 1   
    14     6    29 1   
    15     7    18 2   
    16     7    22 1   
    17     7    30 1   
    18     8    13 ar  
    19     8    14 ar  
    20     8    37 1   
    21     9    14 ar  
    22     9    15 ar  
    23     9    31 1   
    24    10    13 ar  
    25    10    15 ar  
    26    10    32 1   
    27    11    16 ar  
    28    11    33 1   
    29    12    20 2   
    30    12    22 1   
    31    12    36 1   
    32    13    36 1   
    33    14    34 1   
    34    15    19 1   
    35    16    17 ar  
    36    16    35 1   
    37    17    18 1   
    38    18    20 1   
    39    24    36 1   
@<TRIPOS>SUBSTRUCTURE
     1 4CJ         1 TEMP              0 ****  ****    0 ROOT
