@<TRIPOS>MOLECULE
4CK
   32    34     1     0     0
SMALL
No Charge or Current Charge


@<TRIPOS>ATOM
      1 N1           4.0930     1.2390    -0.0290 na         1 4CK      -0.012200
      2 N2           2.7540     1.6080    -0.0330 nc         1 4CK      -0.588800
      3 N3           0.7690     0.3770    -0.0240 ns         1 4CK      -0.476400
      4 OAA         -6.6330    -0.6220    -0.0220 o          1 4CK      -0.714000
      5 OAC         -6.2640     1.4940    -0.0400 o          1 4CK      -0.714000
      6 CAD         -3.4470     1.1430    -0.0350 ca         1 4CK      -0.100500
      7 CAE         -3.8630    -1.2440    -0.0140 ca         1 4CK      -0.100500
      8 CAF         -2.0610     0.9050    -0.0320 ca         1 4CK      -0.100500
      9 CAG         -2.4780    -1.4840    -0.0110 ca         1 4CK      -0.100500
     10 CAH          3.0340    -0.6360    -0.0140 cd         1 4CK      -0.214000
     11 CAI          6.7760    -0.2840     0.7420 cx         1 4CK      -0.130900
     12 CAJ          6.7770    -0.2960    -0.7690 cx         1 4CK      -0.130900
     13 CAO         -0.0620    -0.7180    -0.0160 c          1 4CK       0.632700
     14 CAP         -4.3700     0.0740    -0.0260 ca         1 4CK      -0.104600
     15 CAQ         -1.5520    -0.4170    -0.0200 ca         1 4CK      -0.192600
     16 CAR          2.1360     0.4520    -0.0240 cd         1 4CK       0.398900
     17 CAS          4.3080    -0.1420    -0.0170 cc         1 4CK      -0.113300
     18 CAT          5.5980    -0.8600    -0.0100 cx         1 4CK      -0.055400
     19 HN3          0.2780     1.2560    -0.0320 hn         1 4CK       0.338500
     20 HAD         -3.8020     2.1720    -0.0450 ha         1 4CK       0.132000
     21 HAE         -4.5430    -2.0930    -0.0070 ha         1 4CK       0.132000
     22 HAF         -1.4000     1.7680    -0.0390 ha         1 4CK       0.098500
     23 HAG         -2.1280    -2.5140    -0.0010 ha         1 4CK       0.098500
     24 HAH          2.7800    -1.6880    -0.0050 ha         1 4CK       0.168000
     25 HAI          7.4350    -0.9800     1.2550 hc         1 4CK       0.071200
     26 HAIA         6.6510     0.6730     1.2430 hc         1 4CK       0.071200
     27 HAJ          6.6530     0.6520    -1.2860 hc         1 4CK       0.071200
     28 HAJA         7.4380    -1.0010    -1.2690 hc         1 4CK       0.071200
     29 HAT          5.4880    -1.9430    -0.0010 hc         1 4CK       0.096700
     30 HN1          4.8280     1.9450    -0.0350 hn         1 4CK       0.362000
     31 CAN         -5.8710     0.3350    -0.0300 c          1 4CK       0.710600
     32 OAB          0.3570    -1.8670    -0.0050 o          1 4CK      -0.607100
@<TRIPOS>BOND
     1     1     2 1   
     2     1    17 1   
     3     1    30 1   
     4     2    16 2   
     5     3    13 1   
     6     3    16 1   
     7     3    19 1   
     8     4    31 1   
     9     5    31 1   
    10     6     8 ar  
    11     6    14 ar  
    12     6    20 1   
    13     7     9 ar  
    14     7    14 ar  
    15     7    21 1   
    16     8    15 ar  
    17     8    22 1   
    18     9    15 ar  
    19     9    23 1   
    20    10    16 1   
    21    10    17 2   
    22    10    24 1   
    23    11    12 1   
    24    11    18 1   
    25    11    25 1   
    26    11    26 1   
    27    12    18 1   
    28    12    27 1   
    29    12    28 1   
    30    13    15 1   
    31    13    32 2   
    32    14    31 1   
    33    17    18 1   
    34    18    29 1   
@<TRIPOS>SUBSTRUCTURE
     1 4CK         1 TEMP              0 ****  ****    0 ROOT
