@<TRIPOS>MOLECULE
4CK
   32    34     1     0     0
SMALL
bcc


@<TRIPOS>ATOM
      1 N1           4.0550     1.0940    -0.3810 na         1 4CK      -0.012600
      2 N2           2.7620     1.4150    -0.4790 nc         1 4CK      -0.588800
      3 N3           0.7330     0.3410    -0.1750 ns         1 4CK      -0.543400
      4 OAA         -6.5510    -0.5890    -0.3370 o          1 4CK      -0.819300
      5 OAC         -6.1820     1.5080     0.3280 o          1 4CK      -0.819300
      6 CAD         -3.4210     1.1000     0.3580 ca         1 4CK      -0.118500
      7 CAE         -3.8110    -1.1570    -0.3310 ca         1 4CK      -0.118500
      8 CAF         -2.0550     0.8680     0.3610 ca         1 4CK      -0.118500
      9 CAG         -2.4480    -1.4010    -0.3150 ca         1 4CK      -0.118500
     10 CAH          3.0090    -0.7460     0.1320 cd         1 4CK      -0.297300
     11 CAI          6.7370    -0.0220     0.7360 cx         1 4CK      -0.130900
     12 CAJ          6.7520    -0.4130    -0.7040 cx         1 4CK      -0.130900
     13 CAO         -0.0960    -0.7100     0.0320 c          1 4CK       0.699700
     14 CAP         -4.3190     0.0960     0.0070 ca         1 4CK      -0.104600
     15 CAQ         -1.5530    -0.3870     0.0190 ca         1 4CK      -0.192600
     16 CAR          2.1210     0.3050    -0.1690 cd         1 4CK       0.464200
     17 CAS          4.2610    -0.1830    -0.0200 cc         1 4CK      -0.062600
     18 CAT          5.5820    -0.7990     0.1610 cx         1 4CK      -0.055400
     19 HN3          0.3340     1.2340    -0.4210 hn         1 4CK       0.338500
     20 HAD         -3.7950     2.0740     0.6400 ha         1 4CK       0.150000
     21 HAE         -4.4920    -1.9510    -0.6050 ha         1 4CK       0.150000
     22 HAF         -1.3930     1.6710     0.6630 ha         1 4CK       0.116500
     23 HAG         -2.0760    -2.3840    -0.5760 ha         1 4CK       0.116500
     24 HAH          2.7890    -1.7580     0.4140 ha         1 4CK       0.186000
     25 HAI          7.3920    -0.5450     1.4200 hc         1 4CK       0.071200
     26 HAIA         6.5750     1.0190     0.9850 hc         1 4CK       0.071200
     27 HAJ          6.6000     0.3600    -1.4470 hc         1 4CK       0.071200
     28 HAJA         7.4190    -1.2050    -1.0180 hc         1 4CK       0.071200
     29 HAT          5.5210    -1.8430     0.4440 hc         1 4CK       0.096700
     30 HN1          4.7460     1.7990    -0.5840 hn         1 4CK       0.311700
     31 CAN         -5.8210     0.3630    -0.0020 c          1 4CK       0.921200
     32 OAB          0.3050    -1.8480     0.2100 o          1 4CK      -0.607100
@<TRIPOS>BOND
     1     1     2 1   
     2     1    17 1   
     3     1    30 1   
     4     2    16 2   
     5     3    13 1   
     6     3    16 1   
     7     3    19 1   
     8     4    31 1   
     9     5    31 1   
    10     6     8 ar  
    11     6    14 ar  
    12     6    20 1   
    13     7     9 ar  
    14     7    14 ar  
    15     7    21 1   
    16     8    15 ar  
    17     8    22 1   
    18     9    15 ar  
    19     9    23 1   
    20    10    16 1   
    21    10    17 2   
    22    10    24 1   
    23    11    12 1   
    24    11    18 1   
    25    11    25 1   
    26    11    26 1   
    27    12    18 1   
    28    12    27 1   
    29    12    28 1   
    30    13    15 1   
    31    13    32 2   
    32    14    31 1   
    33    17    18 1   
    34    18    29 1   
@<TRIPOS>SUBSTRUCTURE
     1 4CK         1 TEMP              0 ****  ****    0 ROOT
