@<TRIPOS>MOLECULE
4CL
   14    14     1     0     0
SMALL
abcg2


@<TRIPOS>ATOM
      1 CL9         -2.8530    -0.0890    -0.1930 cl         1 4CL      -0.199000
      2 C4          -1.1350     0.1040    -0.0400 ca         1 4CL       0.124000
      3 C5          -0.5900     1.3730     0.0030 ca         1 4CL      -0.104000
      4 C6           0.7890     1.5040     0.1260 ca         1 4CL      -0.153000
      5 C1           1.6050     0.3900     0.2040 ca         1 4CL       0.044100
      6 O7           2.9500     0.4390     0.3250 oh         1 4CL      -0.555100
      7 C2           1.0370    -0.8920     0.1580 ca         1 4CL       0.131100
      8 C3          -0.3370    -1.0300     0.0360 ca         1 4CL      -0.118000
      9 O8           1.7930    -2.0030     0.2340 oh         1 4CL      -0.530100
     10 H5          -1.2160     2.2520    -0.0590 ha         1 4CL       0.132000
     11 H6           1.2260     2.4950     0.1610 ha         1 4CL       0.117000
     12 HO7          3.2580     1.3510     0.3780 ho         1 4CL       0.477000
     13 H3          -0.7710    -2.0210     0.0020 ha         1 4CL       0.147000
     14 HO8          2.7280    -1.7750     0.3000 ho         1 4CL       0.485000
@<TRIPOS>BOND
     1     1     2 1   
     2     2     3 ar  
     3     2     8 ar  
     4     3     4 ar  
     5     3    10 1   
     6     4     5 ar  
     7     4    11 1   
     8     5     6 1   
     9     5     7 ar  
    10     6    12 1   
    11     7     8 ar  
    12     7     9 1   
    13     8    13 1   
    14     9    14 1   
@<TRIPOS>SUBSTRUCTURE
     1 4CL         1 TEMP              0 ****  ****    0 ROOT
