@<TRIPOS>MOLECULE
4CL
   14    14     1     0     0
SMALL
No Charge or Current Charge


@<TRIPOS>ATOM
      1 Cl9         -2.9080    -0.0620    -0.2020 cl         1 4CL      -0.199000
      2 C4          -1.1630     0.0930    -0.0440 ca         1 4CL       0.124000
      3 C5          -0.5750     1.3690     0.0060 ca         1 4CL      -0.104000
      4 C6           0.8220     1.4990     0.1330 ca         1 4CL      -0.153000
      5 C1           1.6260     0.3480     0.2090 ca         1 4CL       0.044100
      6 O7           2.9850     0.4660     0.3320 oh         1 4CL      -0.555100
      7 C2           1.0300    -0.9300     0.1580 ca         1 4CL       0.131100
      8 C3          -0.3620    -1.0580     0.0320 ca         1 4CL      -0.118000
      9 O8           1.8180    -2.0410     0.2320 oh         1 4CL      -0.530100
     10 H5          -1.2020     2.2560    -0.0530 ha         1 4CL       0.132000
     11 H6           1.2670     2.4910     0.1710 ha         1 4CL       0.117000
     12 HO7          3.2230     1.4200     0.3520 ho         1 4CL       0.477000
     13 H3          -0.8190    -2.0430    -0.0070 ha         1 4CL       0.147000
     14 HO8          2.7410    -1.7110     0.3160 ho         1 4CL       0.485000
@<TRIPOS>BOND
     1     1     2 1   
     2     2     3 ar  
     3     2     8 ar  
     4     3     4 ar  
     5     3    10 1   
     6     4     5 ar  
     7     4    11 1   
     8     5     6 1   
     9     5     7 ar  
    10     6    12 1   
    11     7     8 ar  
    12     7     9 1   
    13     8    13 1   
    14     9    14 1   
@<TRIPOS>SUBSTRUCTURE
     1 4CL         1 TEMP              0 ****  ****    0 ROOT
