@<TRIPOS>MOLECULE
4CM
   23    23     1     0     0
SMALL
bcc


@<TRIPOS>ATOM
      1 C1          -2.0590     0.0180    -0.0950 ca         1 4CM      -0.164900
      2 O1           3.0200     1.4520     0.6040 o          1 4CM      -0.830500
      3 C2          -1.3410    -1.1650     0.0730 ca         1 4CM      -0.130500
      4 O2           3.0310    -1.1510     0.9190 o          1 4CM      -0.830500
      5 C3           0.0410    -1.1430     0.1620 ca         1 4CM      -0.083500
      6 N1          -4.1910     1.1300     0.1170 nv         1 4CM      -0.968800
      7 N2          -4.0970    -1.1160    -0.5850 n2         1 4CM      -0.845100
      8 C4           0.7480     0.0550     0.0690 ca         1 4CM      -0.223500
      9 C5           0.0280     1.2340    -0.1010 ca         1 4CM      -0.083500
     10 C6          -1.3580     1.2200    -0.1820 ca         1 4CM      -0.130500
     11 C7          -3.5450    -0.0330    -0.1890 ce         1 4CM       0.670800
     12 P1           2.5840     0.0750     0.1510 p5         1 4CM       1.140700
     13 C8           3.0320    -0.1350    -1.6120 c3         1 4CM      -0.308300
     14 H2          -1.8760    -2.1030     0.1480 ha         1 4CM       0.120500
     15 H3           0.5780    -2.0710     0.3130 ha         1 4CM       0.145000
     16 HN11        -3.7590     1.7640     0.7690 hn         1 4CM       0.397300
     17 HN12        -5.1950     1.0950     0.1960 hn         1 4CM       0.397300
     18 HN2         -5.1100    -1.0360    -0.5750 hn         1 4CM       0.347400
     19 H5           0.5520     2.1790    -0.1730 ha         1 4CM       0.145000
     20 H6          -1.8830     2.1540    -0.3360 ha         1 4CM       0.120500
     21 H81          4.1200    -0.1330    -1.7140 hc         1 4CM       0.037700
     22 H82          2.6580    -1.0780    -2.0110 hc         1 4CM       0.037700
     23 H83          2.6360     0.6760    -2.2250 hc         1 4CM       0.037700
@<TRIPOS>BOND
     1     1     3 ar  
     2     1    10 ar  
     3     1    11 1   
     4     2    12 1   
     5     3     5 ar  
     6     3    14 1   
     7     4    12 1   
     8     5     8 ar  
     9     5    15 1   
    10     6    11 1   
    11     6    16 1   
    12     6    17 1   
    13     7    11 2   
    14     7    18 1   
    15     8     9 ar  
    16     8    12 1   
    17     9    10 ar  
    18     9    19 1   
    19    10    20 1   
    20    12    13 1   
    21    13    21 1   
    22    13    22 1   
    23    13    23 1   
@<TRIPOS>SUBSTRUCTURE
     1 4CM         1 TEMP              0 ****  ****    0 ROOT
