@<TRIPOS>MOLECULE
4CM
   23    23     1     0     0
SMALL
No Charge or Current Charge


@<TRIPOS>ATOM
      1 C1          -2.0940    -0.0020    -0.0820 ca         1 4CM      -0.164900
      2 O1           3.0870     1.3870     0.6390 o          1 4CM      -0.830500
      3 C2          -1.3530    -1.1980     0.0670 ca         1 4CM      -0.112500
      4 O2           3.1120    -1.1040     0.9040 o          1 4CM      -0.830500
      5 C3           0.0500    -1.1770     0.1420 ca         1 4CM      -0.065500
      6 N1          -4.2810     1.0900     0.0630 nv         1 4CM      -1.079200
      7 N2          -4.2540    -1.1050    -0.4050 n2         1 4CM      -0.845100
      8 C4           0.7510     0.0420     0.0560 ca         1 4CM      -0.223500
      9 C5           0.0260     1.2370    -0.1170 ca         1 4CM      -0.065500
     10 C6          -1.3780     1.2160    -0.1900 ca         1 4CM      -0.112500
     11 C7          -3.5940    -0.0430    -0.1880 ce         1 4CM       0.670800
     12 P1           2.5820     0.0690     0.1390 p5         1 4CM       1.298500
     13 C8           3.1140    -0.1110    -1.6080 c3         1 4CM      -0.466100
     14 H2          -1.8660    -2.1550     0.1350 ha         1 4CM       0.102500
     15 H3           0.5940    -2.1130     0.2630 ha         1 4CM       0.127000
     16 HN11        -3.7390     1.8200     0.5110 hn         1 4CM       0.452500
     17 HN12        -5.2230     0.9720     0.4170 hn         1 4CM       0.452500
     18 HN2         -5.2250    -0.8390    -0.6020 hn         1 4CM       0.347400
     19 H5           0.5510     2.1870    -0.2010 ha         1 4CM       0.127000
     20 H6          -1.9010     2.1570    -0.3430 ha         1 4CM       0.102500
     21 H81          4.2070    -0.1060    -1.6670 hc         1 4CM       0.037700
     22 H82          2.7330    -1.0550    -2.0110 hc         1 4CM       0.037700
     23 H83          2.7140     0.7200    -2.2000 hc         1 4CM       0.037700
@<TRIPOS>BOND
     1     1     3 ar  
     2     1    10 ar  
     3     1    11 1   
     4     2    12 1   
     5     3     5 ar  
     6     3    14 1   
     7     4    12 1   
     8     5     8 ar  
     9     5    15 1   
    10     6    11 1   
    11     6    16 1   
    12     6    17 1   
    13     7    11 2   
    14     7    18 1   
    15     8     9 ar  
    16     8    12 1   
    17     9    10 ar  
    18     9    19 1   
    19    10    20 1   
    20    12    13 1   
    21    13    21 1   
    22    13    22 1   
    23    13    23 1   
@<TRIPOS>SUBSTRUCTURE
     1 4CM         1 TEMP              0 ****  ****    0 ROOT
