@<TRIPOS>MOLECULE
4CN
   29    31     1     0     0
SMALL
No Charge or Current Charge


@<TRIPOS>ATOM
      1 CAA         -4.8430     1.9880    -0.0440 c3         1 4CN      -0.127400
      2 CAL         -3.8970     0.8250    -0.0300 cc         1 4CN       0.445700
      3 NAI         -2.5800     0.9660    -0.0260 nd         1 4CN      -0.653000
      4 SAJ         -4.5020    -0.8090    -0.0260 ss         1 4CN      -0.034400
      5 CAF         -2.8460    -1.3450    -0.0150 cc         1 4CN      -0.270000
      6 CAO         -1.9690    -0.2810    -0.0180 cd         1 4CN       0.358500
      7 CAM         -0.4920    -0.3940    -0.0090 ca         1 4CN      -0.150500
      8 CAG          0.3170     0.7720    -0.0100 ca         1 4CN      -0.023000
      9 CAN          1.7130     0.6360    -0.0070 ca         1 4CN      -0.151300
     10 CAH          2.7770     1.7170     0.0620 c5         1 4CN      -0.113100
     11 CAK          4.1110     0.9130     0.0670 c          1 4CN       0.565000
     12 OAC          5.2640     1.3260     0.0270 o          1 4CN      -0.527000
     13 NAQ          3.7060    -0.4380     0.0640 n          1 4CN      -0.216400
     14 CAB          4.6600    -1.5560    -0.0640 c3         1 4CN       0.092300
     15 CAP          2.3060    -0.6060    -0.0260 ca         1 4CN      -0.023000
     16 CAE          1.5480    -1.7810     0.0300 ca         1 4CN      -0.149000
     17 CAD          0.1420    -1.6680     0.0180 ca         1 4CN      -0.064000
     18 H1          -5.6530     1.8370     0.6780 hc         1 4CN       0.058033
     19 H2          -4.3290     2.9210     0.2140 hc         1 4CN       0.058033
     20 H3          -5.2890     2.1080    -1.0380 hc         1 4CN       0.058033
     21 H4          -2.6370    -2.4040    -0.0090 h4         1 4CN       0.161000
     22 H5          -0.1240     1.7670    -0.0010 ha         1 4CN       0.140000
     23 H6           2.7800     2.4150    -0.7810 hc         1 4CN       0.091700
     24 H7           2.7290     2.3170     0.9760 hc         1 4CN       0.091700
     25 H8           5.6780    -1.2220     0.1690 h1         1 4CN       0.049033
     26 H9           4.3840    -2.3570     0.6320 h1         1 4CN       0.049033
     27 H10          4.6330    -1.9430    -1.0900 h1         1 4CN       0.049033
     28 H11          2.0230    -2.7570     0.0710 ha         1 4CN       0.123000
     29 H12         -0.4460    -2.5810     0.0420 ha         1 4CN       0.112000
@<TRIPOS>BOND
     1     1     2 1   
     2     1    18 1   
     3     1    19 1   
     4     1    20 1   
     5     2     3 2   
     6     2     4 1   
     7     3     6 1   
     8     4     5 1   
     9     5     6 2   
    10     5    21 1   
    11     6     7 1   
    12     7     8 ar  
    13     7    17 ar  
    14     8     9 ar  
    15     8    22 1   
    16     9    10 1   
    17     9    15 ar  
    18    10    11 1   
    19    10    23 1   
    20    10    24 1   
    21    11    12 2   
    22    11    13 1   
    23    13    14 1   
    24    13    15 1   
    25    14    25 1   
    26    14    26 1   
    27    14    27 1   
    28    15    16 ar  
    29    16    17 ar  
    30    16    28 1   
    31    17    29 1   
@<TRIPOS>SUBSTRUCTURE
     1 4CN         1 TEMP              0 ****  ****    0 ROOT
