@<TRIPOS>MOLECULE
4CN
   29    31     1     0     0
SMALL
abcg2


@<TRIPOS>ATOM
      1 CAA         -4.7420     2.0060    -0.0350 c3         1 4CN      -0.127400
      2 CAL         -3.8280     0.8310    -0.0060 cc         1 4CN       0.445700
      3 NAI         -2.5380     0.9020    -0.0170 nd         1 4CN      -0.653000
      4 SAJ         -4.4310    -0.7870     0.0410 ss         1 4CN      -0.034400
      5 CAF         -2.8260    -1.3760     0.0460 cc         1 4CN      -0.270000
      6 CAO         -1.9450    -0.3330     0.0110 cd         1 4CN       0.358500
      7 CAM         -0.4800    -0.4250     0.0040 ca         1 4CN      -0.150500
      8 CAG          0.2920     0.7460     0.0090 ca         1 4CN      -0.023000
      9 CAN          1.6630     0.6550     0.0040 ca         1 4CN      -0.151300
     10 CAH          2.7280     1.7020     0.0050 c5         1 4CN      -0.113100
     11 CAK          4.0130     0.8930    -0.0050 c          1 4CN       0.565000
     12 OAC          5.1490     1.3220    -0.0100 o          1 4CN      -0.527000
     13 NAQ          3.6680    -0.4300    -0.0060 n          1 4CN      -0.216400
     14 CAB          4.6020    -1.5260    -0.0210 c3         1 4CN       0.092300
     15 CAP          2.2880    -0.5910    -0.0050 ca         1 4CN      -0.023000
     16 CAE          1.5560    -1.7650    -0.0140 ca         1 4CN      -0.149000
     17 CAD          0.1700    -1.6600    -0.0090 ca         1 4CN      -0.064000
     18 H1          -5.7870     1.7090     0.0200 hc         1 4CN       0.058033
     19 H2          -4.5330     2.6710     0.8020 hc         1 4CN       0.058033
     20 H3          -4.6010     2.5750    -0.9550 hc         1 4CN       0.058033
     21 H4          -2.6260    -2.4350     0.0760 h4         1 4CN       0.161000
     22 H5          -0.1930     1.7140     0.0170 ha         1 4CN       0.140000
     23 H6           2.6940     2.3550    -0.8700 hc         1 4CN       0.091700
     24 H7           2.7010     2.3480     0.8870 hc         1 4CN       0.091700
     25 H8           5.6130    -1.1320     0.0110 h1         1 4CN       0.049033
     26 H9           4.4510    -2.1710     0.8450 h1         1 4CN       0.049033
     27 H10          4.4870    -2.1220    -0.9260 h1         1 4CN       0.049033
     28 H11          2.0290    -2.7370    -0.0250 ha         1 4CN       0.123000
     29 H12         -0.4090    -2.5750    -0.0180 ha         1 4CN       0.112000
@<TRIPOS>BOND
     1     1     2 1   
     2     1    18 1   
     3     1    19 1   
     4     1    20 1   
     5     2     3 2   
     6     2     4 1   
     7     3     6 1   
     8     4     5 1   
     9     5     6 2   
    10     5    21 1   
    11     6     7 1   
    12     7     8 ar  
    13     7    17 ar  
    14     8     9 ar  
    15     8    22 1   
    16     9    10 1   
    17     9    15 ar  
    18    10    11 1   
    19    10    23 1   
    20    10    24 1   
    21    11    12 2   
    22    11    13 1   
    23    13    14 1   
    24    13    15 1   
    25    14    25 1   
    26    14    26 1   
    27    14    27 1   
    28    15    16 ar  
    29    16    17 ar  
    30    16    28 1   
    31    17    29 1   
@<TRIPOS>SUBSTRUCTURE
     1 4CN         1 TEMP              0 ****  ****    0 ROOT
