@<TRIPOS>MOLECULE
4CP
   47    48     1     0     0
SMALL
No Charge or Current Charge


@<TRIPOS>ATOM
      1 C1          -6.0150    -1.4750    -0.3460 ca         1 4CP       0.109000
      2 C2          -6.2110    -0.1850     0.1700 ca         1 4CP      -0.088500
      3 C3          -5.1040     0.5980     0.5420 ca         1 4CP      -0.105500
      4 C4          -3.7960     0.0970     0.4010 ca         1 4CP      -0.111000
      5 C5          -3.6050    -1.2030    -0.1180 ca         1 4CP      -0.105500
      6 C6          -4.7140    -1.9840    -0.4890 ca         1 4CP      -0.088500
      7 Cl7         -7.3990    -2.4560    -0.8120 cl         1 4CP      -0.204000
      8 S8          -2.4300     1.1540     0.8980 ss         1 4CP      -0.056000
      9 C9          -0.8930     0.2240     0.4640 c3         1 4CP      -0.072400
     10 C10          0.3530     1.0390     0.8030 c          1 4CP       0.620100
     11 O11          1.0350     0.8140     1.7930 o          1 4CP      -0.584100
     12 N12          0.6400     2.0540    -0.0850 ns         1 4CP      -0.483900
     13 C13          1.8300     2.9350    -0.0200 c3         1 4CP       0.038700
     14 C14          2.9800     2.4040    -0.9180 c3         1 4CP      -0.035100
     15 C15          3.3410     0.9470    -0.6440 ca         1 4CP      -0.129300
     16 C16          2.8390    -0.0800    -1.4680 ca         1 4CP      -0.076000
     17 C17          3.1640    -1.4220    -1.2030 ca         1 4CP      -0.157500
     18 C18          3.9970    -1.7510    -0.1220 ca         1 4CP       0.334000
     19 C19          4.4920    -0.7280     0.7050 ca         1 4CP      -0.157500
     20 C20          4.1690     0.6160     0.4450 ca         1 4CP      -0.076000
     21 N21          4.2900    -3.0850     0.1380 nu         1 4CP      -0.931200
     22 C22          5.4430    -3.6740     0.3390 c2         1 4CP       0.815100
     23 N23          6.5420    -3.1370     0.1110 n2         1 4CP      -0.879100
     24 N24          5.1460    -4.9420     0.2450 nv         1 4CP      -1.070200
     25 C25          1.4450     4.4040    -0.3710 c          1 4CP       0.598100
     26 O26          0.3340     4.7430    -0.7510 o          1 4CP      -0.595100
     27 N27          2.4210     5.3340    -0.2490 nt         1 4CP      -0.602000
     28 H2          -7.2190     0.2080     0.2810 ha         1 4CP       0.128000
     29 H3          -5.2630     1.5970     0.9410 ha         1 4CP       0.120500
     30 H5          -2.6120    -1.6250    -0.2380 ha         1 4CP       0.120500
     31 H6          -4.5660    -2.9850    -0.8880 ha         1 4CP       0.128000
     32 H9C1        -0.8840     0.0020    -0.6100 h1         1 4CP       0.082700
     33 H9C2        -0.8560    -0.7140     1.0300 h1         1 4CP       0.082700
     34 H12         -0.0190     2.1960    -0.8420 hn         1 4CP       0.326500
     35 H13          2.1920     2.9560     1.0170 h1         1 4CP       0.070700
     36 H141         3.8700     3.0300    -0.7810 hc         1 4CP       0.062700
     37 H142         2.6900     2.5250    -1.9700 hc         1 4CP       0.062700
     38 H16          2.1930     0.1600    -2.3100 ha         1 4CP       0.110000
     39 H17          2.7680    -2.2050    -1.8430 ha         1 4CP       0.134000
     40 H19          5.1250    -0.9760     1.5510 ha         1 4CP       0.134000
     41 H20          4.5570     1.3970     1.0950 ha         1 4CP       0.110000
     42 H21          3.7050    -3.7380    -0.3600 hn         1 4CP       0.492000
     43 H23          7.2530    -3.8750     0.0920 hn         1 4CP       0.386400
     44 H241         4.4700    -5.2030     0.9500 hn         1 4CP       0.456000
     45 H242         5.9590    -5.5430     0.2410 hn         1 4CP       0.456000
     46 H271         3.3410     5.0700     0.0710 hn         1 4CP       0.315500
     47 H272         2.2130     6.2970    -0.4690 hn         1 4CP       0.315500
@<TRIPOS>BOND
     1     1     2 ar  
     2     1     6 ar  
     3     1     7 1   
     4     2     3 ar  
     5     2    28 1   
     6     3     4 ar  
     7     3    29 1   
     8     4     5 ar  
     9     4     8 1   
    10     5     6 ar  
    11     5    30 1   
    12     6    31 1   
    13     8     9 1   
    14     9    10 1   
    15     9    32 1   
    16     9    33 1   
    17    10    11 2   
    18    10    12 1   
    19    12    13 1   
    20    12    34 1   
    21    13    14 1   
    22    13    25 1   
    23    13    35 1   
    24    14    15 1   
    25    14    36 1   
    26    14    37 1   
    27    15    16 ar  
    28    15    20 ar  
    29    16    17 ar  
    30    16    38 1   
    31    17    18 ar  
    32    17    39 1   
    33    18    19 ar  
    34    18    21 1   
    35    19    20 ar  
    36    19    40 1   
    37    20    41 1   
    38    21    22 1   
    39    21    42 1   
    40    22    23 2   
    41    22    24 1   
    42    23    43 1   
    43    24    44 1   
    44    24    45 1   
    45    25    26 2   
    46    25    27 1   
    47    27    46 1   
    48    27    47 1   
@<TRIPOS>SUBSTRUCTURE
     1 4CP         1 TEMP              0 ****  ****    0 ROOT
