@<TRIPOS>MOLECULE
4CP
   47    48     1     0     0
SMALL
bcc


@<TRIPOS>ATOM
      1 C1          -6.0000    -1.6160     0.0320 ca         1 4CP       0.017400
      2 C2          -6.1630    -0.7410     1.0970 ca         1 4CP      -0.106500
      3 C3          -5.1300     0.1120     1.4400 ca         1 4CP      -0.123500
      4 C4          -3.9270     0.1030     0.7290 ca         1 4CP       0.015900
      5 C5          -3.7820    -0.7830    -0.3350 ca         1 4CP      -0.123500
      6 C6          -4.8170    -1.6410    -0.6850 ca         1 4CP      -0.106500
      7 CL7         -7.2910    -2.6870    -0.4030 cl         1 4CP      -0.112400
      8 S8          -2.6970     1.2360     1.2760 ss         1 4CP      -0.135000
      9 C9          -1.3770     0.9890     0.0720 c3         1 4CP      -0.120300
     10 C10         -0.2570     1.9470     0.4210 c          1 4CP       0.687100
     11 O11         -0.3390     2.7350     1.3490 o          1 4CP      -0.584100
     12 N12          0.8260     1.8510    -0.3600 ns         1 4CP      -0.550900
     13 C13          1.9670     2.7070    -0.1730 c3         1 4CP       0.038700
     14 C14          3.0850     2.3090    -1.1480 c3         1 4CP      -0.035100
     15 C15          3.5310     0.8860    -0.9590 ca         1 4CP      -0.129300
     16 C16          3.1970    -0.1080    -1.8740 ca         1 4CP      -0.094000
     17 C17          3.5840    -1.4220    -1.6790 ca         1 4CP      -0.175500
     18 C18          4.3280    -1.7950    -0.5540 ca         1 4CP       0.195600
     19 C19          4.6730    -0.8010     0.3680 ca         1 4CP      -0.175500
     20 C20          4.2720     0.5090     0.1560 ca         1 4CP      -0.094000
     21 N21          4.6580    -3.1370    -0.4360 nu         1 4CP      -0.737600
     22 C22          5.4150    -3.7820     0.5160 c2         1 4CP       0.815100
     23 N23          6.0320    -3.1470     1.4380 n2         1 4CP      -0.879100
     24 N24          5.4620    -5.1430     0.2990 nv         1 4CP      -0.959800
     25 C25          1.5900     4.1710    -0.4180 c          1 4CP       0.665100
     26 O26          0.7590     4.4860    -1.2520 o          1 4CP      -0.595100
     27 N27          2.2970     5.0470     0.3050 nt         1 4CP      -0.669000
     28 H2          -7.0880    -0.7200     1.6570 ha         1 4CP       0.146000
     29 H3          -5.2670     0.7920     2.2710 ha         1 4CP       0.138500
     30 H5          -2.8690    -0.8270    -0.9120 ha         1 4CP       0.138500
     31 H6          -4.6900    -2.3220    -1.5150 ha         1 4CP       0.146000
     32 H9C1        -1.7350     1.1890    -0.9410 h1         1 4CP       0.082700
     33 H9C2        -1.0070    -0.0390     0.1000 h1         1 4CP       0.082700
     34 H12          0.8240     1.2040    -1.1330 hn         1 4CP       0.326500
     35 H13          2.3380     2.5920     0.8510 h1         1 4CP       0.070700
     36 H141         3.9220     2.9930    -0.9960 hc         1 4CP       0.062700
     37 H142         2.7380     2.4640    -2.1730 hc         1 4CP       0.062700
     38 H16          2.6300     0.1450    -2.7630 ha         1 4CP       0.128000
     39 H17          3.3070    -2.1720    -2.4120 ha         1 4CP       0.152000
     40 H19          5.2590    -1.0570     1.2360 ha         1 4CP       0.152000
     41 H20          4.5550     1.2580     0.8870 ha         1 4CP       0.128000
     42 H21          4.3280    -3.7140    -1.1940 hn         1 4CP       0.436800
     43 H23          6.5050    -3.7930     2.0580 hn         1 4CP       0.386400
     44 H241         4.6410    -5.5720    -0.0980 hn         1 4CP       0.400800
     45 H242         5.8220    -5.6800     1.0720 hn         1 4CP       0.400800
     46 H271         2.9360     4.7520     1.0220 hn         1 4CP       0.315500
     47 H272         2.1710     6.0380     0.1770 hn         1 4CP       0.315500
@<TRIPOS>BOND
     1     1     2 ar  
     2     1     6 ar  
     3     1     7 1   
     4     2     3 ar  
     5     2    28 1   
     6     3     4 ar  
     7     3    29 1   
     8     4     5 ar  
     9     4     8 1   
    10     5     6 ar  
    11     5    30 1   
    12     6    31 1   
    13     8     9 1   
    14     9    10 1   
    15     9    32 1   
    16     9    33 1   
    17    10    11 2   
    18    10    12 1   
    19    12    13 1   
    20    12    34 1   
    21    13    14 1   
    22    13    25 1   
    23    13    35 1   
    24    14    15 1   
    25    14    36 1   
    26    14    37 1   
    27    15    16 ar  
    28    15    20 ar  
    29    16    17 ar  
    30    16    38 1   
    31    17    18 ar  
    32    17    39 1   
    33    18    19 ar  
    34    18    21 1   
    35    19    20 ar  
    36    19    40 1   
    37    20    41 1   
    38    21    22 1   
    39    21    42 1   
    40    22    23 2   
    41    22    24 1   
    42    23    43 1   
    43    24    44 1   
    44    24    45 1   
    45    25    26 2   
    46    25    27 1   
    47    27    46 1   
    48    27    47 1   
@<TRIPOS>SUBSTRUCTURE
     1 4CP         1 TEMP              0 ****  ****    0 ROOT
