@<TRIPOS>MOLECULE
4CR
   44    45     1     0     0
SMALL
No Charge or Current Charge


@<TRIPOS>ATOM
      1 O4A          2.8840     0.9580    -1.1190 o          1 4CR      -0.521000
      2 C4A          3.1540     0.4130    -0.0580 c          1 4CR       0.637100
      3 N4           4.3590    -0.2780     0.1840 n          1 4CR      -0.389800
      4 C4B          5.3980    -0.3780    -0.8650 c3         1 4CR       0.106000
      5 C4C          5.3500    -1.7190    -1.6180 c3         1 4CR      -0.120100
      6 CN4          4.6320    -0.9210     1.4900 c3         1 4CR       0.096300
      7 O4           2.3270     0.4060     1.0310 os         1 4CR      -0.365200
      8 C4           1.0530     0.9150     1.0030 ca         1 4CR       0.157100
      9 C3           0.0350     0.2870     0.2600 ca         1 4CR      -0.071300
     10 C2           0.1570    -0.9510    -0.5960 c5         1 4CR      -0.030100
     11 C1          -1.3570    -1.3680    -0.7250 c5         1 4CR      -0.087400
     12 C5           0.7450     2.0660     1.7520 ca         1 4CR      -0.073000
     13 C6          -0.5630     2.5940     1.7310 ca         1 4CR      -0.087000
     14 C7          -1.5670     1.9640     0.9710 ca         1 4CR      -0.091000
     15 C8          -1.2480     0.7990     0.2510 ca         1 4CR      -0.149300
     16 C9          -2.1760    -0.0180    -0.6150 c5         1 4CR       0.081600
     17 N10         -3.4880    -0.3720     0.0000 nh         1 4CR      -0.140700
     18 C10         -3.6310    -0.5900     1.4570 c3         1 4CR      -0.005100
     19 C11         -4.5750    -0.3330    -0.8850 ce         1 4CR       0.402500
     20 C12         -5.9760    -0.3860    -0.4190 ce         1 4CR      -0.400600
     21 C13         -7.0450    -0.3520    -1.2530 c2         1 4CR      -0.121000
     22 H4B1         6.3860    -0.2640    -0.4000 h1         1 4CR       0.068700
     23 H4B2         5.2870     0.4440    -1.5830 h1         1 4CR       0.068700
     24 H4C1         6.1320    -1.7540    -2.3850 hc         1 4CR       0.045367
     25 H4C2         5.5050    -2.5580    -0.9290 hc         1 4CR       0.045367
     26 H4C3         4.3780    -1.8490    -2.1100 hc         1 4CR       0.045367
     27 HN41         4.6310    -0.1630     2.2840 h1         1 4CR       0.046700
     28 HN42         3.8580    -1.6690     1.7030 h1         1 4CR       0.046700
     29 HN43         5.6100    -1.4190     1.4770 h1         1 4CR       0.046700
     30 H2C1         0.7660    -1.7370    -0.1360 hc         1 4CR       0.086700
     31 H2C2         0.5960    -0.7200    -1.5730 hc         1 4CR       0.086700
     32 H1C1        -1.6080    -2.0580     0.0900 hc         1 4CR       0.067200
     33 H1C2        -1.5640    -1.9040    -1.6580 hc         1 4CR       0.067200
     34 H5           1.5210     2.5510     2.3390 ha         1 4CR       0.149000
     35 H6          -0.7960     3.4910     2.3020 ha         1 4CR       0.137000
     36 H7          -2.5760     2.3710     0.9490 ha         1 4CR       0.114000
     37 H9          -2.2820     0.4670    -1.5960 h1         1 4CR       0.094700
     38 H101        -2.6510    -0.7290     1.9310 h1         1 4CR       0.093700
     39 H102        -4.1200     0.2740     1.9250 h1         1 4CR       0.093700
     40 H103        -4.2300    -1.4880     1.6530 h1         1 4CR       0.093700
     41 H11         -4.3670    -0.2250    -1.9510 h4         1 4CR       0.051800
     42 H12         -6.1410    -0.4510     0.6570 ha         1 4CR       0.222000
     43 H131        -8.0700    -0.3900    -0.8770 ha         1 4CR       0.201000
     44 H132        -6.9420    -0.2860    -2.3380 ha         1 4CR       0.201000
@<TRIPOS>BOND
     1     1     2 2   
     2     2     3 1   
     3     2     7 1   
     4     3     4 1   
     5     3     6 1   
     6     4     5 1   
     7     4    22 1   
     8     4    23 1   
     9     5    24 1   
    10     5    25 1   
    11     5    26 1   
    12     6    27 1   
    13     6    28 1   
    14     6    29 1   
    15     7     8 1   
    16     8     9 ar  
    17     8    12 ar  
    18     9    10 1   
    19     9    15 ar  
    20    10    11 1   
    21    10    30 1   
    22    10    31 1   
    23    11    16 1   
    24    11    32 1   
    25    11    33 1   
    26    12    13 ar  
    27    12    34 1   
    28    13    14 ar  
    29    13    35 1   
    30    14    15 ar  
    31    14    36 1   
    32    15    16 1   
    33    16    17 1   
    34    16    37 1   
    35    17    18 1   
    36    17    19 2   
    37    18    38 1   
    38    18    39 1   
    39    18    40 1   
    40    19    20 1   
    41    19    41 1   
    42    20    21 2   
    43    20    42 1   
    44    21    43 1   
    45    21    44 1   
@<TRIPOS>SUBSTRUCTURE
     1 4CR         1 TEMP              0 ****  ****    0 ROOT
