@<TRIPOS>MOLECULE
4CR
   44    45     1     0     0
SMALL
abcg2


@<TRIPOS>ATOM
      1 O4A          2.8210     1.0250    -1.0160 o          1 4CR      -0.521000
      2 C4A          3.1300     0.4840     0.0230 c          1 4CR       0.637100
      3 N4           4.2770    -0.1620     0.2760 n          1 4CR      -0.389800
      4 C4B          5.2240    -0.3510    -0.8140 c3         1 4CR       0.106000
      5 C4C          4.9700    -1.6290    -1.5970 c3         1 4CR      -0.120100
      6 CN4          4.4890    -0.9080     1.5060 c3         1 4CR       0.096300
      7 O4           2.3160     0.4820     1.1100 os         1 4CR      -0.365200
      8 C4           1.0460     0.9810     0.9550 ca         1 4CR       0.157100
      9 C3           0.0880     0.2570     0.2650 ca         1 4CR      -0.071300
     10 C2           0.2230    -1.0360    -0.4830 c5         1 4CR      -0.030100
     11 C1          -1.2340    -1.4860    -0.6720 c5         1 4CR      -0.087400
     12 C5           0.7090     2.1770     1.5670 ca         1 4CR      -0.073000
     13 C6          -0.5950     2.6570     1.4850 ca         1 4CR      -0.087000
     14 C7          -1.5670     1.9480     0.7910 ca         1 4CR      -0.091000
     15 C8          -1.2070     0.7490     0.1990 ca         1 4CR      -0.149300
     16 C9          -2.0610    -0.1900    -0.6120 c5         1 4CR       0.081600
     17 N10         -3.3940    -0.3870    -0.0280 nh         1 4CR      -0.140700
     18 C10         -3.4740    -0.8480     1.3580 c3         1 4CR      -0.005100
     19 C11         -4.4480    -0.1820    -0.7380 ce         1 4CR       0.402500
     20 C12         -5.7980    -0.3640    -0.2940 ce         1 4CR      -0.400600
     21 C13         -6.7930    -0.1060    -1.1510 c2         1 4CR      -0.121000
     22 H4B1         6.2240    -0.3650    -0.3800 h1         1 4CR       0.068700
     23 H4B2         5.1810     0.5140    -1.4730 h1         1 4CR       0.068700
     24 H4C1         5.7150    -1.7440    -2.3850 hc         1 4CR       0.045367
     25 H4C2         5.0280    -2.5090    -0.9540 hc         1 4CR       0.045367
     26 H4C3         3.9850    -1.6150    -2.0640 hc         1 4CR       0.045367
     27 HN41         4.4330    -0.2650     2.3830 h1         1 4CR       0.046700
     28 HN42         3.7780    -1.7260     1.6250 h1         1 4CR       0.046700
     29 HN43         5.4870    -1.3370     1.4750 h1         1 4CR       0.046700
     30 H2C1         0.8180    -1.7810     0.0470 hc         1 4CR       0.086700
     31 H2C2         0.7080    -0.8610    -1.4460 hc         1 4CR       0.086700
     32 H1C1        -1.5160    -2.1550     0.1430 hc         1 4CR       0.067200
     33 H1C2        -1.4000    -2.0220    -1.6050 hc         1 4CR       0.067200
     34 H5           1.4600     2.7310     2.1150 ha         1 4CR       0.149000
     35 H6          -0.8470     3.5920     1.9650 ha         1 4CR       0.137000
     36 H7          -2.5800     2.3260     0.7300 ha         1 4CR       0.114000
     37 H9          -2.2170     0.2120    -1.6150 h1         1 4CR       0.094700
     38 H101        -2.4850    -0.8290     1.8040 h1         1 4CR       0.093700
     39 H102        -4.1230    -0.1930     1.9330 h1         1 4CR       0.093700
     40 H103        -3.8580    -1.8650     1.3910 h1         1 4CR       0.093700
     41 H11         -4.2880     0.1530    -1.7560 h4         1 4CR       0.051800
     42 H12         -6.0060    -0.7060     0.7110 ha         1 4CR       0.222000
     43 H131        -7.8250    -0.2310    -0.8590 ha         1 4CR       0.201000
     44 H132        -6.6040     0.2340    -2.1610 ha         1 4CR       0.201000
@<TRIPOS>BOND
     1     1     2 2   
     2     2     3 1   
     3     2     7 1   
     4     3     4 1   
     5     3     6 1   
     6     4     5 1   
     7     4    22 1   
     8     4    23 1   
     9     5    24 1   
    10     5    25 1   
    11     5    26 1   
    12     6    27 1   
    13     6    28 1   
    14     6    29 1   
    15     7     8 1   
    16     8     9 ar  
    17     8    12 ar  
    18     9    10 1   
    19     9    15 ar  
    20    10    11 1   
    21    10    30 1   
    22    10    31 1   
    23    11    16 1   
    24    11    32 1   
    25    11    33 1   
    26    12    13 ar  
    27    12    34 1   
    28    13    14 ar  
    29    13    35 1   
    30    14    15 ar  
    31    14    36 1   
    32    15    16 1   
    33    16    17 1   
    34    16    37 1   
    35    17    18 1   
    36    17    19 2   
    37    18    38 1   
    38    18    39 1   
    39    18    40 1   
    40    19    20 1   
    41    19    41 1   
    42    20    21 2   
    43    20    42 1   
    44    21    43 1   
    45    21    44 1   
@<TRIPOS>SUBSTRUCTURE
     1 4CR         1 TEMP              0 ****  ****    0 ROOT
