@<TRIPOS>MOLECULE
4CS
   19    19     1     0     0
SMALL
No Charge or Current Charge


@<TRIPOS>ATOM
      1 O            2.2110    -1.0210     0.9870 o          1 4CS      -0.725500
      2 C            2.0960    -0.2050     0.0790 c          1 4CS       0.731000
      3 OXT          2.9740    -0.0740    -0.7660 o          1 4CS      -0.725500
      4 CA           0.6380     0.2090    -0.3500 c6         1 4CS      -0.012500
      5 CB           0.1930     1.4770     0.4280 c6         1 4CS      -0.094400
      6 CAD         -1.2420     1.8650     0.0350 c6         1 4CS       0.225800
      7 NAG         -2.0850     0.6770     0.1720 nu         1 4CS      -0.970400
      8 CAI         -1.6490    -0.6120    -0.0860 c2         1 4CS       0.564200
      9 CAA         -2.7290    -1.6660    -0.0340 c3         1 4CS      -0.122400
     10 N           -0.4110    -0.8710    -0.3290 n2         1 4CS      -0.588900
     11 HA           0.7310     0.5030    -1.4050 h1         1 4CS       0.042700
     12 HB1          0.2380     1.2860     1.5090 hc         1 4CS       0.053200
     13 HB2          0.8770     2.3120     0.2250 hc         1 4CS       0.053200
     14 HAD1        -1.6100     2.6850     0.6690 h1         1 4CS       0.006700
     15 HAD2        -1.2510     2.2090    -1.0100 h1         1 4CS       0.006700
     16 HNAG        -3.0890     0.7950     0.2990 hn         1 4CS       0.452000
     17 HAA1        -3.5130    -1.4640    -0.7730 hc         1 4CS       0.035033
     18 HAA2        -2.3250    -2.6630    -0.2460 hc         1 4CS       0.035033
     19 HAA3        -3.1970    -1.7020     0.9570 hc         1 4CS       0.035033
@<TRIPOS>BOND
     1     1     2 1   
     2     2     3 1   
     3     2     4 1   
     4     4     5 1   
     5     4    10 1   
     6     4    11 1   
     7     5     6 1   
     8     5    12 1   
     9     5    13 1   
    10     6     7 1   
    11     6    14 1   
    12     6    15 1   
    13     7     8 1   
    14     7    16 1   
    15     8     9 1   
    16     8    10 2   
    17     9    17 1   
    18     9    18 1   
    19     9    19 1   
@<TRIPOS>SUBSTRUCTURE
     1 4CS         1 TEMP              0 ****  ****    0 ROOT
