@<TRIPOS>MOLECULE
4CS
   19    19     1     0     0
SMALL
abcg2


@<TRIPOS>ATOM
      1 O            2.0680    -1.3930     0.6480 o          1 4CS      -0.725500
      2 C            1.9780    -0.3150     0.0350 c          1 4CS       0.731000
      3 OXT          2.9170     0.4630    -0.2430 o          1 4CS      -0.725500
      4 CA           0.5800     0.1630    -0.4180 c6         1 4CS      -0.012500
      5 CB           0.2040     1.4330     0.3540 c6         1 4CS      -0.094400
      6 CAD         -1.2180     1.8410     0.0190 c6         1 4CS       0.225800
      7 NAG         -2.0760     0.6950     0.2000 nu         1 4CS      -0.970400
      8 CAI         -1.6210    -0.5650    -0.0500 c2         1 4CS       0.564200
      9 CAA         -2.6740    -1.6330     0.0290 c3         1 4CS      -0.122400
     10 N           -0.4140    -0.8840    -0.3220 n2         1 4CS      -0.588900
     11 HA           0.6770     0.4450    -1.4770 h1         1 4CS       0.042700
     12 HB1          0.2810     1.2480     1.4310 hc         1 4CS       0.053200
     13 HB2          0.8930     2.2420     0.1150 hc         1 4CS       0.053200
     14 HAD1        -1.5570     2.6460     0.6730 h1         1 4CS       0.006700
     15 HAD2        -1.2670     2.2210    -1.0090 h1         1 4CS       0.006700
     16 HNAG        -3.0700     0.8430     0.2370 hn         1 4CS       0.452000
     17 HAA1        -3.4230    -1.4940    -0.7540 hc         1 4CS       0.035033
     18 HAA2        -2.2240    -2.6150    -0.0920 hc         1 4CS       0.035033
     19 HAA3        -3.1970    -1.6020     0.9860 hc         1 4CS       0.035033
@<TRIPOS>BOND
     1     1     2 1   
     2     2     3 1   
     3     2     4 1   
     4     4     5 1   
     5     4    10 1   
     6     4    11 1   
     7     5     6 1   
     8     5    12 1   
     9     5    13 1   
    10     6     7 1   
    11     6    14 1   
    12     6    15 1   
    13     7     8 1   
    14     7    16 1   
    15     8     9 1   
    16     8    10 2   
    17     9    17 1   
    18     9    18 1   
    19     9    19 1   
@<TRIPOS>SUBSTRUCTURE
     1 4CS         1 TEMP              0 ****  ****    0 ROOT
