@<TRIPOS>MOLECULE
4CT
   46    49     1     0     0
SMALL
abcg2


@<TRIPOS>ATOM
      1 N1           7.0170    -1.3220     0.6300 nb         1 4CT      -0.269000
      2 CL1         -8.8200     0.5640    -0.3320 cl         1 4CT      -0.201000
      3 C2           5.8490    -1.9710     0.5620 ca         1 4CT       0.136900
      4 N3           4.7200    -1.5610     0.0350 nb         1 4CT      -0.150000
      5 C4           4.7840    -0.3270    -0.5040 ca         1 4CT       0.142800
      6 C5           5.9580     0.4340    -0.4990 ca         1 4CT      -0.220200
      7 C6           7.1060    -0.1040     0.1030 ca         1 4CT       0.384900
      8 N6           8.2940     0.5320     0.1370 nv         1 4CT      -1.070900
      9 N7           5.6950     1.6150    -1.1330 na         1 4CT      -0.202700
     10 C8           4.3970     1.6100    -1.5360 cc         1 4CT      -0.147100
     11 C9           3.7860     0.4360    -1.1740 cd         1 4CT      -0.261000
     12 C1           0.2330    -0.4510    -0.3980 c5         1 4CT       0.161800
     13 N2           1.5750     0.0580    -0.2070 n3         1 4CT      -0.687600
     14 C10          2.3700     0.0390    -1.4170 c3         1 4CT       0.253000
     15 C11         -7.1590     0.0870    -0.2120 ca         1 4CT       0.126000
     16 C13         -6.8360    -1.1180     0.3900 ca         1 4CT      -0.104000
     17 C14         -5.5020    -1.4860     0.4970 ca         1 4CT      -0.080000
     18 C12          1.3760     1.3750     0.3610 c5         1 4CT       0.123800
     19 C3           0.3000     1.1570     1.4250 c5         1 4CT       0.173300
     20 O3           0.8180     0.8310     2.6950 oh         1 4CT      -0.640000
     21 C15         -0.4920    -0.0590     0.8940 c5         1 4CT      -0.061700
     22 C16         -1.9620     0.2660     0.6930 c3         1 4CT       0.060600
     23 S6          -2.8230    -1.2220     0.0880 ss         1 4CT      -0.190000
     24 C7          -4.4970    -0.6670    -0.0130 ca         1 4CT      -0.105000
     25 C17         -4.8450     0.5320    -0.6310 ca         1 4CT      -0.080000
     26 C18         -6.1720     0.9190    -0.7200 ca         1 4CT      -0.104000
     27 H2           5.8480    -2.9610     1.0070 h5         1 4CT       0.045100
     28 HN6          9.0060     0.1530     0.7400 hn         1 4CT       0.481000
     29 HN6A         8.3400     1.5260    -0.0090 hn         1 4CT       0.481000
     30 HN7          6.3450     2.3610    -1.3160 hn         1 4CT       0.350000
     31 H8           3.9850     2.4580    -2.0610 h4         1 4CT       0.213000
     32 H1'A         0.2420    -1.5280    -0.5780 h1         1 4CT       0.044200
     33 H10          1.9330     0.6920    -2.1920 h1         1 4CT       0.038700
     34 H10A         2.3420    -0.9780    -1.8190 h1         1 4CT       0.038700
     35 H13         -7.6080    -1.7620     0.7870 ha         1 4CT       0.130500
     36 H14         -5.2480    -2.4150     0.9900 ha         1 4CT       0.125500
     37 H6           2.2990     1.7920     0.7710 h1         1 4CT       0.036700
     38 H2'A         1.0000     2.0890    -0.3940 h1         1 4CT       0.036700
     39 H3          -0.3420     2.0450     1.4900 h1         1 4CT       0.027700
     40 HO3          1.2380     1.6180     3.0570 ho         1 4CT       0.439000
     41 H4          -0.4000    -0.8650     1.6270 hc         1 4CT       0.098700
     42 H5          -2.4250     0.5780     1.6300 h1         1 4CT       0.062700
     43 H5'A        -2.0690     1.0730    -0.0340 h1         1 4CT       0.062700
     44 H7          -4.0850     1.1750    -1.0540 ha         1 4CT       0.125500
     45 H9          -6.4330     1.8550    -1.1950 ha         1 4CT       0.130500
     46 H1          -0.2650     0.0200    -1.2670 h1         1 4CT       0.044200
@<TRIPOS>BOND
     1     1     3 ar  
     2     1     7 ar  
     3     2    15 1   
     4     3     4 ar  
     5     3    27 1   
     6     4     5 ar  
     7     5     6 ar  
     8     5    11 1   
     9     6     7 ar  
    10     6     9 1   
    11     7     8 1   
    12     8    28 1   
    13     8    29 1   
    14     9    10 1   
    15     9    30 1   
    16    10    11 2   
    17    10    31 1   
    18    11    14 1   
    19    12    13 1   
    20    12    21 1   
    21    12    32 1   
    22    12    46 1   
    23    13    14 1   
    24    13    18 1   
    25    14    33 1   
    26    14    34 1   
    27    15    16 ar  
    28    15    26 ar  
    29    16    17 ar  
    30    16    35 1   
    31    17    24 ar  
    32    17    36 1   
    33    18    19 1   
    34    18    37 1   
    35    18    38 1   
    36    19    20 1   
    37    19    21 1   
    38    19    39 1   
    39    20    40 1   
    40    21    22 1   
    41    21    41 1   
    42    22    23 1   
    43    22    42 1   
    44    22    43 1   
    45    23    24 1   
    46    24    25 ar  
    47    25    26 ar  
    48    25    44 1   
    49    26    45 1   
@<TRIPOS>SUBSTRUCTURE
     1 4CT         1 TEMP              0 ****  ****    0 ROOT
