@<TRIPOS>MOLECULE
4CT
   46    49     1     0     0
SMALL
No Charge or Current Charge


@<TRIPOS>ATOM
      1 N1           6.7090    -1.8320     0.9600 nb         1 4CT      -0.269000
      2 Cl1         -9.0510    -0.5060     0.2710 cl         1 4CT      -0.201000
      3 C2           5.4590    -2.3220     0.7360 ca         1 4CT       0.136900
      4 N3           4.4580    -1.7180     0.0470 nb         1 4CT      -0.150000
      5 C4           4.7870    -0.5110    -0.4440 ca         1 4CT       0.142800
      6 C5           6.0070     0.0740    -0.2830 ca         1 4CT      -0.220200
      7 C6           6.9840    -0.6190     0.4430 ca         1 4CT       0.384900
      8 N6           8.2330    -0.1310     0.6730 nv         1 4CT      -1.070900
      9 N7           6.0150     1.3080    -0.9240 na         1 4CT      -0.202700
     10 C8           4.7550     1.5370    -1.5210 cc         1 4CT      -0.147100
     11 C9           3.9930     0.4080    -1.2220 cd         1 4CT      -0.261000
     12 C1           0.1880     0.1730    -0.8590 c5         1 4CT       0.161800
     13 N2           1.6050     0.4470    -0.5570 n3         1 4CT      -0.687600
     14 C10          2.5650     0.1740    -1.6440 c3         1 4CT       0.253000
     15 C11         -7.2970    -0.6440     0.2760 ca         1 4CT       0.126000
     16 C13         -6.6900    -1.8820     0.0130 ca         1 4CT      -0.104000
     17 C14         -5.2890    -1.9910     0.0170 ca         1 4CT      -0.080000
     18 C12          1.6100     1.8320    -0.0110 c5         1 4CT       0.123800
     19 C3           0.2120     1.9910     0.6920 c5         1 4CT       0.173300
     20 O3           0.3050     2.3380     2.0780 oh         1 4CT      -0.640000
     21 C15         -0.4420     0.5920     0.4910 c5         1 4CT      -0.061700
     22 C16         -1.9850     0.6050     0.5200 c3         1 4CT       0.060600
     23 S6          -2.7030    -1.0820     0.2700 ss         1 4CT      -0.190000
     24 C7          -4.4860    -0.8650     0.2820 ca         1 4CT      -0.105000
     25 C17         -5.1030     0.3780     0.5470 ca         1 4CT      -0.080000
     26 C18         -6.5050     0.4840     0.5420 ca         1 4CT      -0.104000
     27 H2           5.2370    -3.3030     1.1540 h5         1 4CT       0.045100
     28 HN6          8.8110    -0.6060     1.3620 hn         1 4CT       0.481000
     29 HN6A         8.4060     0.8630     0.5460 hn         1 4CT       0.481000
     30 HN7          6.8080     1.9430    -0.9680 hn         1 4CT       0.350000
     31 H8           4.5150     2.4370    -2.0820 h4         1 4CT       0.213000
     32 H1'A         0.0100    -0.8870    -1.0900 h1         1 4CT       0.044200
     33 H10          2.3430     0.8090    -2.5120 h1         1 4CT       0.038700
     34 H10A         2.4670    -0.8700    -1.9730 h1         1 4CT       0.038700
     35 H13         -7.3040    -2.7550    -0.1920 ha         1 4CT       0.130500
     36 H14         -4.8240    -2.9530    -0.1870 ha         1 4CT       0.125500
     37 H6           2.4470     1.9810     0.6850 h1         1 4CT       0.036700
     38 H2'A         1.7100     2.5740    -0.8150 h1         1 4CT       0.036700
     39 H3          -0.3700     2.7560     0.1580 h1         1 4CT       0.027700
     40 HO3          0.7590     3.2080     2.1230 ho         1 4CT       0.439000
     41 H4          -0.1170    -0.0960     1.2800 hc         1 4CT       0.098700
     42 H5          -2.3200     0.9890     1.4910 h1         1 4CT       0.062700
     43 H5'A        -2.3590     1.2710    -0.2690 h1         1 4CT       0.062700
     44 H7          -4.5170     1.2670     0.7590 ha         1 4CT       0.125500
     45 H9          -6.9790     1.4410     0.7460 ha         1 4CT       0.130500
     46 H1          -0.1840     0.7810    -1.6960 h1         1 4CT       0.044200
@<TRIPOS>BOND
     1     1     3 ar  
     2     1     7 ar  
     3     2    15 1   
     4     3     4 ar  
     5     3    27 1   
     6     4     5 ar  
     7     5     6 ar  
     8     5    11 1   
     9     6     7 ar  
    10     6     9 1   
    11     7     8 1   
    12     8    28 1   
    13     8    29 1   
    14     9    10 1   
    15     9    30 1   
    16    10    11 2   
    17    10    31 1   
    18    11    14 1   
    19    12    13 1   
    20    12    21 1   
    21    12    32 1   
    22    12    46 1   
    23    13    14 1   
    24    13    18 1   
    25    14    33 1   
    26    14    34 1   
    27    15    16 ar  
    28    15    26 ar  
    29    16    17 ar  
    30    16    35 1   
    31    17    24 ar  
    32    17    36 1   
    33    18    19 1   
    34    18    37 1   
    35    18    38 1   
    36    19    20 1   
    37    19    21 1   
    38    19    39 1   
    39    20    40 1   
    40    21    22 1   
    41    21    41 1   
    42    22    23 1   
    43    22    42 1   
    44    22    43 1   
    45    23    24 1   
    46    24    25 ar  
    47    25    26 ar  
    48    25    44 1   
    49    26    45 1   
@<TRIPOS>SUBSTRUCTURE
     1 4CT         1 TEMP              0 ****  ****    0 ROOT
