@<TRIPOS>MOLECULE
4CU
   46    47     1     0     0
SMALL
abcg2


@<TRIPOS>ATOM
      1 C12         -0.0570     0.2140     0.7890 cp         1 4CU      -0.128000
      2 C11          1.0950    -0.2580     0.1700 ca         1 4CU      -0.071000
      3 C14         -1.6800    -1.6780     0.6950 ca         1 4CU      -0.055000
      4 C15         -2.9010    -2.2470     0.3490 ca         1 4CU      -0.119300
      5 C17         -3.1020    -4.5210    -0.6370 c2         1 4CU      -0.214200
      6 C20         -3.5670    -0.1030    -0.5670 ca         1 4CU      -0.207000
      7 C21         -2.3370     0.4490    -0.2200 ca         1 4CU       0.146100
      8 O22         -1.9770     1.7190    -0.4780 os         1 4CU      -0.330100
      9 O01         -0.9820     1.6970     2.4490 oh         1 4CU      -0.548100
     10 C02          0.0670     1.2080     1.7650 ca         1 4CU       0.130100
     11 C03          1.3280     1.7180     2.0750 ca         1 4CU      -0.155000
     12 C04          2.4540     1.2440     1.4330 ca         1 4CU      -0.080000
     13 C05          2.3650     0.2370     0.4660 ca         1 4CU      -0.035800
     14 C06          3.5250    -0.3070    -0.2400 ce         1 4CU      -0.233200
     15 C07          4.7890     0.1170    -0.1650 cf         1 4CU      -0.220200
     16 C08          5.9190    -0.5180    -0.9400 c          1 4CU       0.695200
     17 O09          5.6560    -1.5060    -1.6560 o          1 4CU      -0.725500
     18 O10          7.0390     0.0160    -0.7920 o          1 4CU      -0.725500
     19 C13         -1.3810    -0.3460     0.4300 cp         1 4CU      -0.063000
     20 C18         -2.2360    -5.5070    -0.8400 c2         1 4CU      -0.316000
     21 C19         -3.8360    -1.4350    -0.2820 ca         1 4CU      -0.075000
     22 C23         -2.9500     2.6300    -0.9660 c3         1 4CU       0.165600
     23 C24         -2.3150     4.0020    -1.0470 c3         1 4CU      -0.084400
     24 C25         -3.3020     5.0330    -1.5780 c3         1 4CU      -0.088100
     25 H111         0.9930    -1.0340    -0.5810 ha         1 4CU       0.115000
     26 H141        -0.9320    -2.2820     1.1970 ha         1 4CU       0.125000
     27 H171        -3.8040    -4.2610    -1.4250 ha         1 4CU       0.164000
     28 H201        -4.3250     0.4850    -1.0660 ha         1 4CU       0.111000
     29 H011        -1.7850     1.2040     2.2400 ho         1 4CU       0.459000
     30 H031         1.4150     2.4870     2.8320 ha         1 4CU       0.111000
     31 H041         3.4160     1.6600     1.7000 ha         1 4CU       0.119000
     32 H061         3.3170    -1.1460    -0.8980 ha         1 4CU       0.189000
     33 H071         5.0510     0.9620     0.4660 ha         1 4CU       0.142000
     34 H161        -2.4730    -4.0920     1.3520 hc         1 4CU       0.047200
     35 H162        -4.1810    -3.8060     1.0560 hc         1 4CU       0.047200
     36 H182        -2.2130    -6.0590    -1.7700 ha         1 4CU       0.161500
     37 H181        -1.5170    -5.7980    -0.0820 ha         1 4CU       0.161500
     38 H191        -4.8030    -1.8380    -0.5590 ha         1 4CU       0.102000
     39 H232        -3.3040     2.3180    -1.9550 h1         1 4CU       0.026700
     40 H231        -3.8170     2.6500    -0.2960 h1         1 4CU       0.026700
     41 H241        -1.9640     4.2980    -0.0550 hc         1 4CU       0.063200
     42 H242        -1.4380     3.9590    -1.6970 hc         1 4CU       0.063200
     43 H252        -3.6630     4.7630    -2.5720 hc         1 4CU       0.031033
     44 H251        -4.1700     5.1280    -0.9240 hc         1 4CU       0.031033
     45 H253        -2.8350     6.0150    -1.6520 hc         1 4CU       0.031033
     46 C16         -3.1830    -3.7040     0.6180 c3         1 4CU       0.010100
@<TRIPOS>BOND
     1     1     2 ar  
     2     1    10 ar  
     3     1    19 1   
     4     2    13 ar  
     5     2    25 1   
     6     3     4 ar  
     7     3    19 ar  
     8     3    26 1   
     9     4    21 ar  
    10     4    46 1   
    11     5    20 2   
    12     5    27 1   
    13     5    46 1   
    14     6     7 ar  
    15     6    21 ar  
    16     6    28 1   
    17     7     8 1   
    18     7    19 ar  
    19     8    22 1   
    20     9    10 1   
    21     9    29 1   
    22    10    11 ar  
    23    11    12 ar  
    24    11    30 1   
    25    12    13 ar  
    26    12    31 1   
    27    13    14 1   
    28    14    15 2   
    29    14    32 1   
    30    15    16 1   
    31    15    33 1   
    32    16    17 1   
    33    16    18 1   
    34    20    36 1   
    35    20    37 1   
    36    21    38 1   
    37    22    23 1   
    38    22    39 1   
    39    22    40 1   
    40    23    24 1   
    41    23    41 1   
    42    23    42 1   
    43    24    43 1   
    44    24    44 1   
    45    24    45 1   
    46    34    46 1   
    47    35    46 1   
@<TRIPOS>SUBSTRUCTURE
     1 4CU         1 TEMP              0 ****  ****    0 ROOT
