@<TRIPOS>MOLECULE
4CU
   46    47     1     0     0
SMALL
No Charge or Current Charge


@<TRIPOS>ATOM
      1 C12         -0.0750     0.2900     0.6710 cp         1 4CU      -0.128000
      2 C11          1.0670    -0.3390     0.1140 ca         1 4CU      -0.071000
      3 C14         -1.6710    -1.6480     0.5140 ca         1 4CU      -0.055000
      4 C15         -2.9220    -2.2260     0.2320 ca         1 4CU      -0.119300
      5 C17         -2.5280    -4.5170    -0.7330 c2         1 4CU      -0.214200
      6 C20         -3.7780    -0.0330    -0.3900 ca         1 4CU      -0.207000
      7 C21         -2.5220     0.5440    -0.1040 ca         1 4CU       0.146100
      8 O22         -2.2840     1.8940    -0.2740 os         1 4CU      -0.330100
      9 O01         -0.9140     2.0270     2.1290 oh         1 4CU      -0.548100
     10 C02          0.1360     1.3830     1.5530 ca         1 4CU       0.130100
     11 C03          1.4340     1.8190     1.8550 ca         1 4CU      -0.155000
     12 C04          2.5500     1.1850     1.2840 ca         1 4CU      -0.080000
     13 C05          2.3750     0.0980     0.4050 ca         1 4CU      -0.035800
     14 C06          3.5360    -0.6020    -0.2180 ce         1 4CU      -0.233200
     15 C07          4.8770    -0.3490    -0.0840 cf         1 4CU      -0.220200
     16 C08          5.9740    -1.1110    -0.7530 c          1 4CU       0.695200
     17 O09          5.6870    -2.0420    -1.4890 o          1 4CU      -0.725500
     18 O10          7.1210    -0.7590    -0.5290 o          1 4CU      -0.725500
     19 C13         -1.4410    -0.2580     0.3610 cp         1 4CU      -0.063000
     20 C18         -1.6150    -5.4930    -0.6100 c2         1 4CU      -0.316000
     21 C19         -3.9750    -1.4120    -0.2210 ca         1 4CU      -0.075000
     22 C23         -3.2640     2.7870    -0.8260 c3         1 4CU       0.165600
     23 C24         -2.6300     4.1890    -0.8850 c3         1 4CU      -0.084400
     24 C25         -3.5800     5.2560    -1.4640 c3         1 4CU      -0.088100
     25 H111         0.9280    -1.1810    -0.5610 ha         1 4CU       0.115000
     26 H141        -0.8620    -2.2850     0.8640 ha         1 4CU       0.125000
     27 H171        -2.9040    -4.2320    -1.7180 ha         1 4CU       0.164000
     28 H201        -4.6090     0.5690    -0.7450 ha         1 4CU       0.111000
     29 H011        -1.6860     1.8630     1.5420 ho         1 4CU       0.459000
     30 H031         1.5800     2.6560     2.5330 ha         1 4CU       0.111000
     31 H041         3.5430     1.5460     1.5330 ha         1 4CU       0.119000
     32 H061         3.2500    -1.4290    -0.8710 ha         1 4CU       0.189000
     33 H071         5.2080     0.4650     0.5550 ha         1 4CU       0.142000
     34 H161        -2.6860    -4.0430     1.3650 hc         1 4CU       0.047200
     35 H162        -4.1960    -3.9520     0.4910 hc         1 4CU       0.047200
     36 H182        -1.2260    -6.0230    -1.4810 ha         1 4CU       0.161500
     37 H181        -1.2230    -5.7960     0.3620 ha         1 4CU       0.161500
     38 H191        -4.9460    -1.8480    -0.4470 ha         1 4CU       0.102000
     39 H232        -3.5510     2.4700    -1.8370 h1         1 4CU       0.026700
     40 H231        -4.1620     2.8170    -0.1950 h1         1 4CU       0.026700
     41 H241        -2.3250     4.4900     0.1250 hc         1 4CU       0.063200
     42 H242        -1.7210     4.1470    -1.4980 hc         1 4CU       0.063200
     43 H252        -3.8760     4.9970    -2.4880 hc         1 4CU       0.031033
     44 H251        -4.4850     5.3420    -0.8520 hc         1 4CU       0.031033
     45 H253        -3.0860     6.2350    -1.4880 hc         1 4CU       0.031033
     46 C16         -3.1260    -3.7240     0.4120 c3         1 4CU       0.010100
@<TRIPOS>BOND
     1     1     2 ar  
     2     1    10 ar  
     3     1    19 1   
     4     2    13 ar  
     5     2    25 1   
     6     3     4 ar  
     7     3    19 ar  
     8     3    26 1   
     9     4    21 ar  
    10     4    46 1   
    11     5    20 2   
    12     5    27 1   
    13     5    46 1   
    14     6     7 ar  
    15     6    21 ar  
    16     6    28 1   
    17     7     8 1   
    18     7    19 ar  
    19     8    22 1   
    20     9    10 1   
    21     9    29 1   
    22    10    11 ar  
    23    11    12 ar  
    24    11    30 1   
    25    12    13 ar  
    26    12    31 1   
    27    13    14 1   
    28    14    15 2   
    29    14    32 1   
    30    15    16 1   
    31    15    33 1   
    32    16    17 1   
    33    16    18 1   
    34    20    36 1   
    35    20    37 1   
    36    21    38 1   
    37    22    23 1   
    38    22    39 1   
    39    22    40 1   
    40    23    24 1   
    41    23    41 1   
    42    23    42 1   
    43    24    43 1   
    44    24    44 1   
    45    24    45 1   
    46    34    46 1   
    47    35    46 1   
@<TRIPOS>SUBSTRUCTURE
     1 4CU         1 TEMP              0 ****  ****    0 ROOT
