@<TRIPOS>MOLECULE
4CV
   47    50     1     0     0
SMALL
No Charge or Current Charge


@<TRIPOS>ATOM
      1 C10          0.9860     1.8300    -0.0320 ca         1 4CV       0.241000
      2 C13         -1.9320     4.2620     0.6870 c6         1 4CV       0.150100
      3 C15         -2.2070     3.3830    -1.5360 c6         1 4CV       0.150100
      4 C17          0.9440     0.4030    -0.0530 ca         1 4CV       0.291000
      5 C21         -0.4030    -3.4520    -1.6930 ca         1 4CV       0.186900
      6 C26         -3.2500    -1.1420     0.0720 cc         1 4CV      -0.081500
      7 C28         -2.1210    -1.8160    -0.5100 ca         1 4CV      -0.231800
      8 C02          5.9540    -1.5020     2.7120 c3         1 4CV       0.178100
      9 S04          4.9050    -0.5980     0.4030 sy         1 4CV       1.143600
     10 O05          6.0140     0.1640    -0.1770 o          1 4CV      -0.530500
     11 O06          4.6550    -2.0090     0.0970 o          1 4CV      -0.530500
     12 C07          3.3820     0.3410     0.2240 ca         1 4CV      -0.296500
     13 C08          3.4170     1.7490     0.2280 ca         1 4CV      -0.035000
     14 C09          2.2270     2.4820     0.1040 ca         1 4CV      -0.140000
     15 N11         -0.2090     2.6010    -0.1680 nh         1 4CV      -0.787400
     16 C12         -0.4620     3.7510     0.7620 c6         1 4CV       0.141300
     17 O14         -2.3050     4.5460    -0.6820 os         1 4CV      -0.445000
     18 C16         -0.7520     2.8240    -1.5470 c6         1 4CV       0.141300
     19 N18         -0.3100    -0.2320    -0.1600 nu         1 4CV      -0.930900
     20 C19         -0.7680    -1.4580    -0.6170 ca         1 4CV       0.437900
     21 N20          0.1010    -2.2860    -1.2250 nb         1 4CV      -0.283000
     22 N22         -1.6910    -3.8640    -1.6210 nb         1 4CV      -0.221000
     23 C23         -2.5470    -3.0190    -1.0180 ca         1 4CV       0.148500
     24 N24         -3.9070    -3.1490    -0.7960 na         1 4CV      -0.306400
     25 C25         -4.3360    -1.9820    -0.1180 cd         1 4CV      -0.135100
     26 C29          2.1440    -0.3260     0.0900 ca         1 4CV      -0.028000
     27 H1          -2.6140     3.5050     1.0990 h1         1 4CV       0.054450
     28 H2          -2.0380     5.1770     1.2870 h1         1 4CV       0.054450
     29 H3          -2.9030     2.6110    -1.1770 h1         1 4CV       0.054450
     30 H4          -2.5070     3.6590    -2.5560 h1         1 4CV       0.054450
     31 H5           0.2980    -4.1260    -2.1820 h5         1 4CV       0.057100
     32 H6           5.9940    -1.3280     3.7950 h1         1 4CV       0.052033
     33 H7           5.5750    -2.5200     2.5500 h1         1 4CV       0.052033
     34 H8           6.9810    -1.4540     2.3270 h1         1 4CV       0.052033
     35 H9           4.1380    -0.5800     2.3880 hn         1 4CV       0.478000
     36 H10          4.3640     2.2780     0.3330 ha         1 4CV       0.136000
     37 H11          2.2720     3.5670     0.1030 ha         1 4CV       0.120000
     38 H12          0.2070     4.5880     0.5170 h1         1 4CV       0.052200
     39 H13         -0.2480     3.4520     1.7990 h1         1 4CV       0.052200
     40 H14         -0.7470     1.8830    -2.1160 h1         1 4CV       0.052200
     41 H15         -0.1090     3.5330    -2.0890 h1         1 4CV       0.052200
     42 H16         -1.0640     0.4410    -0.0150 hn         1 4CV       0.532000
     43 H17         -4.4810    -3.9410    -1.0690 hn         1 4CV       0.370000
     44 H18         -5.3710    -1.8360     0.1840 h4         1 4CV       0.233000
     45 H19          2.1100    -1.4100     0.1130 ha         1 4CV       0.169000
     46 Br2         -3.3310     0.5190     0.9650 br         1 4CV      -0.047700
     47 N03          5.0980    -0.4950     2.0570 n7         1 4CV      -0.858300
@<TRIPOS>BOND
     1     1     4 ar  
     2     1    14 ar  
     3     1    15 1   
     4     2    16 1   
     5     2    17 1   
     6     2    27 1   
     7     2    28 1   
     8     3    17 1   
     9     3    18 1   
    10     3    29 1   
    11     3    30 1   
    12     4    19 1   
    13     4    26 ar  
    14     5    21 ar  
    15     5    22 ar  
    16     5    31 1   
    17     6     7 1   
    18     6    25 2   
    19     6    46 1   
    20     7    20 ar  
    21     7    23 ar  
    22     8    32 1   
    23     8    33 1   
    24     8    34 1   
    25     8    47 1   
    26     9    10 2   
    27     9    11 2   
    28     9    12 1   
    29     9    47 1   
    30    12    13 ar  
    31    12    26 ar  
    32    13    14 ar  
    33    13    36 1   
    34    14    37 1   
    35    15    16 1   
    36    15    18 1   
    37    16    38 1   
    38    16    39 1   
    39    18    40 1   
    40    18    41 1   
    41    19    20 1   
    42    19    42 1   
    43    20    21 ar  
    44    22    23 ar  
    45    23    24 1   
    46    24    25 1   
    47    24    43 1   
    48    25    44 1   
    49    26    45 1   
    50    35    47 1   
@<TRIPOS>SUBSTRUCTURE
     1 4CV         1 TEMP              0 ****  ****    0 ROOT
