@<TRIPOS>MOLECULE
4CV
   47    50     1     0     0
SMALL
bcc


@<TRIPOS>ATOM
      1 C10          1.0480     1.9030     0.0150 ca         1 4CV       0.102600
      2 C13         -1.7760     4.2360     0.6770 c6         1 4CV       0.126900
      3 C15         -2.1060     3.2450    -1.4020 c6         1 4CV       0.126900
      4 C17          1.0370     0.4950    -0.0930 ca         1 4CV       0.152600
      5 C21         -0.0580    -3.3210    -1.5730 ca         1 4CV       0.712900
      6 C26         -3.1240    -1.4060     0.2510 cc         1 4CV      -0.081500
      7 C28         -1.8930    -1.8220    -0.3410 ca         1 4CV      -0.362400
      8 C02          4.2860    -1.5460     2.4550 c3         1 4CV       0.178100
      9 S04          4.9510    -0.4080     0.1310 sy         1 4CV       1.285200
     10 O05          6.0230     0.4740    -0.3010 o          1 4CV      -0.601300
     11 O06          4.7380    -1.6780    -0.5450 o          1 4CV      -0.601300
     12 C07          3.4290     0.4980     0.0690 ca         1 4CV      -0.296500
     13 C08          3.4560     1.8750     0.2220 ca         1 4CV      -0.053000
     14 C09          2.2560     2.5660     0.1880 ca         1 4CV      -0.158000
     15 N11         -0.1920     2.5650    -0.0570 nh         1 4CV      -0.649000
     16 C12         -0.3230     3.8000     0.7010 c6         1 4CV       0.141300
     17 O14         -2.2370     4.4250    -0.6420 os         1 4CV      -0.398600
     18 C16         -0.6730     2.7490    -1.4280 c6         1 4CV       0.141300
     19 N18         -0.2180    -0.0990    -0.1310 nu         1 4CV      -0.737300
     20 C19         -0.5800    -1.3420    -0.5350 ca         1 4CV       0.766200
     21 N20          0.3110    -2.1160    -1.1410 nb         1 4CV      -0.809000
     22 N22         -1.2460    -3.8770    -1.4840 nb         1 4CV      -0.747000
     23 C23         -2.1360    -3.1040    -0.8620 ca         1 4CV       0.476800
     24 N24         -3.4230    -3.4280    -0.6100 na         1 4CV      -0.256100
     25 C25         -4.0290    -2.4080     0.0670 cd         1 4CV      -0.085100
     26 C29          2.2400    -0.2020    -0.0820 ca         1 4CV      -0.046000
     27 H1          -2.3880     3.4880     1.2000 h1         1 4CV       0.054450
     28 H2          -1.8860     5.1870     1.2020 h1         1 4CV       0.054450
     29 H3          -2.7560     2.4550    -1.0020 h1         1 4CV       0.054450
     30 H4          -2.4360     3.4700    -2.4160 h1         1 4CV       0.054450
     31 H5           0.7170    -3.9030    -2.0580 h5         1 4CV       0.057100
     32 H6           4.7270    -1.7850     3.4190 h1         1 4CV       0.052033
     33 H7           3.3380    -1.0300     2.6250 h1         1 4CV       0.052033
     34 H8           4.0920    -2.4800     1.9340 h1         1 4CV       0.052033
     35 H9           5.5790     0.0700     2.2130 hn         1 4CV       0.422800
     36 H10          4.3850     2.4150     0.3390 ha         1 4CV       0.154000
     37 H11          2.2700     3.6430     0.2770 ha         1 4CV       0.138000
     38 H12          0.3010     4.6090     0.2930 h1         1 4CV       0.052200
     39 H13         -0.0140     3.6290     1.7340 h1         1 4CV       0.052200
     40 H14         -0.6350     1.8030    -1.9710 h1         1 4CV       0.052200
     41 H15         -0.0340     3.4620    -1.9690 h1         1 4CV       0.052200
     42 H16         -0.9460     0.5330     0.1790 hn         1 4CV       0.476800
     43 H17         -3.8670    -4.2940    -0.8750 hn         1 4CV       0.319700
     44 H18         -5.0610    -2.4730     0.3720 h4         1 4CV       0.183000
     45 H19          2.2400    -1.2750    -0.1880 ha         1 4CV       0.187000
     46 BR2         -3.4860     0.1750     1.1710 br         1 4CV      -0.047700
     47 N03          5.2520    -0.7490     1.7120 n7         1 4CV      -0.803100
@<TRIPOS>BOND
     1     1     4 ar  
     2     1    14 ar  
     3     1    15 1   
     4     2    16 1   
     5     2    17 1   
     6     2    27 1   
     7     2    28 1   
     8     3    17 1   
     9     3    18 1   
    10     3    29 1   
    11     3    30 1   
    12     4    19 1   
    13     4    26 ar  
    14     5    21 ar  
    15     5    22 ar  
    16     5    31 1   
    17     6     7 1   
    18     6    25 2   
    19     6    46 1   
    20     7    20 ar  
    21     7    23 ar  
    22     8    32 1   
    23     8    33 1   
    24     8    34 1   
    25     8    47 1   
    26     9    10 2   
    27     9    11 2   
    28     9    12 1   
    29     9    47 1   
    30    12    13 ar  
    31    12    26 ar  
    32    13    14 ar  
    33    13    36 1   
    34    14    37 1   
    35    15    16 1   
    36    15    18 1   
    37    16    38 1   
    38    16    39 1   
    39    18    40 1   
    40    18    41 1   
    41    19    20 1   
    42    19    42 1   
    43    20    21 ar  
    44    22    23 ar  
    45    23    24 1   
    46    24    25 1   
    47    24    43 1   
    48    25    44 1   
    49    26    45 1   
    50    35    47 1   
@<TRIPOS>SUBSTRUCTURE
     1 4CV         1 TEMP              0 ****  ****    0 ROOT
