@<TRIPOS>MOLECULE
4CX
   64    66     1     0     0
SMALL
No Charge or Current Charge


@<TRIPOS>ATOM
      1 N1          -1.4910     1.8920     0.9570 ns         1 4CX      -0.150000
      2 C4          -6.7030     0.0710     1.3730 ca         1 4CX      -0.014000
      3 C5          -5.6840     0.8330     1.9680 ca         1 4CX      -0.111500
      4 C6          -4.8280     1.6230     1.1780 ca         1 4CX      -0.018300
      5 C7          -3.7190     2.4430     1.8270 c3         1 4CX      -0.126100
      6 C8          -2.4350     1.6140     1.9380 c          1 4CX       0.609100
      7 C10          0.4340     0.4040     1.5090 ca         1 4CX      -0.108000
      8 C13          3.7410    -0.1760    -0.2680 cp         1 4CX      -0.067000
      9 C15          5.2210    -1.5450    -1.6560 ca         1 4CX      -0.117000
     10 C20          6.9920    -4.2850    -0.5140 c3         1 4CX      -0.089100
     11 C21          6.1140    -0.4420     0.3240 ca         1 4CX      -0.021000
     12 C22          4.8350     0.0900     0.5850 ca         1 4CX      -0.045000
     13 C24          1.7760     1.3830    -0.7890 ca         1 4CX      -0.150300
     14 C26          2.4760     1.9700    -2.0330 c3         1 4CX       0.357300
     15 C28         -6.0180     0.8820    -0.8220 ca         1 4CX      -0.014000
     16 C18          8.0210    -3.1470    -0.3110 c3         1 4CX      -0.056700
     17 C19          9.4560    -3.6390    -0.6040 c3         1 4CX      -0.089100
     18 C16          6.3140    -1.2710    -0.8100 ca         1 4CX      -0.019300
     19 C23          7.1870    -0.1190     1.2280 cg         1 4CX       0.326000
     20 N2           8.0510     0.1500     1.9670 n1         1 4CX      -0.455000
     21 C14          3.9520    -1.0100    -1.3870 ca         1 4CX      -0.061000
     22 C12          2.3950     0.3920     0.0290 cp         1 4CX      -0.017000
     23 C25          0.4810     1.8430    -0.4420 ca         1 4CX      -0.127000
     24 F2           2.4330     1.1140    -3.0780 f          1 4CX      -0.111333
     25 F3           1.9110     3.1240    -2.4580 f          1 4CX      -0.111333
     26 F1           3.7790     2.2570    -1.8050 f          1 4CX      -0.111333
     27 C11          1.7110    -0.0700     1.1750 ca         1 4CX      -0.078000
     28 C9          -0.1960     1.3640     0.6940 ca         1 4CX      -0.018000
     29 O3          -2.2910     0.7740     2.8180 o          1 4CX      -0.560100
     30 C27         -5.0000     1.6410    -0.2190 ca         1 4CX      -0.111500
     31 C3          -6.8760     0.0950    -0.0270 ca         1 4CX      -0.261500
     32 S           -8.1760    -0.8920    -0.7970 sy         1 4CX       1.038500
     33 O1          -9.2210    -1.1580     0.2000 o          1 4CX      -0.521500
     34 O2          -8.5020    -0.3050    -2.1040 o          1 4CX      -0.521500
     35 C2          -7.3490    -2.4690    -1.1230 c3         1 4CX      -0.291400
     36 C1          -8.2690    -3.5160    -1.7970 c3         1 4CX      -0.070100
     37 H1          -1.7780     2.6070     0.3010 hn         1 4CX       0.154000
     38 H2          -7.3520    -0.5360     2.0020 ha         1 4CX       0.139500
     39 H3          -5.5580     0.8050     3.0480 ha         1 4CX       0.119500
     40 H4          -3.5340     3.3370     1.2210 hc         1 4CX       0.073700
     41 H5          -4.0290     2.7470     2.8340 hc         1 4CX       0.073700
     42 H6          -0.0430     0.0110     2.4010 ha         1 4CX       0.155000
     43 H7           5.3530    -2.1850    -2.5260 ha         1 4CX       0.122000
     44 H8           8.4690    -1.1360    -1.0130 hc         1 4CX       0.055700
     45 H9           7.7160    -2.1480    -2.2120 hc         1 4CX       0.055700
     46 H10          5.9900    -3.9710    -0.1990 hc         1 4CX       0.035033
     47 H11          6.9450    -4.5860    -1.5670 hc         1 4CX       0.035033
     48 H12          7.2660    -5.1640     0.0820 hc         1 4CX       0.035033
     49 H13          4.6820     0.7270     1.4540 ha         1 4CX       0.131000
     50 H14         -6.1320     0.9080    -1.9050 ha         1 4CX       0.139500
     51 H15          7.9900    -2.8680     0.7500 hc         1 4CX       0.054700
     52 H16         10.1870    -2.8460    -0.4020 hc         1 4CX       0.035033
     53 H17          9.7090    -4.4990     0.0280 hc         1 4CX       0.035033
     54 H18          9.5590    -3.9420    -1.6530 hc         1 4CX       0.035033
     55 H19          3.1210    -1.2470    -2.0460 ha         1 4CX       0.124000
     56 H20         -0.0150     2.5860    -1.0630 ha         1 4CX       0.128000
     57 H21          2.1800    -0.8190     1.8090 ha         1 4CX       0.129000
     58 H22         -4.3450     2.2440    -0.8440 ha         1 4CX       0.119500
     59 H23         -6.4880    -2.2510    -1.7640 h1         1 4CX       0.095200
     60 H24         -6.9890    -2.8440    -0.1580 h1         1 4CX       0.095200
     61 H25         -7.7200    -4.4500    -1.9710 hc         1 4CX       0.053367
     62 H26         -9.1350    -3.7450    -1.1630 hc         1 4CX       0.053367
     63 H27         -8.6350    -3.1520    -2.7650 hc         1 4CX       0.053367
     64 C17          7.6780    -1.8840    -1.1480 c3         1 4CX      -0.039100
@<TRIPOS>BOND
     1     1     6 1   
     2     1    28 1   
     3     1    37 1   
     4     2     3 ar  
     5     2    31 ar  
     6     2    38 1   
     7     3     4 ar  
     8     3    39 1   
     9     4     5 1   
    10     4    30 ar  
    11     5     6 1   
    12     5    40 1   
    13     5    41 1   
    14     6    29 2   
    15     7    27 ar  
    16     7    28 ar  
    17     7    42 1   
    18     8    12 ar  
    19     8    21 ar  
    20     8    22 1   
    21     9    18 ar  
    22     9    21 ar  
    23     9    43 1   
    24    10    16 1   
    25    10    46 1   
    26    10    47 1   
    27    10    48 1   
    28    11    12 ar  
    29    11    18 ar  
    30    11    19 1   
    31    12    49 1   
    32    13    14 1   
    33    13    22 ar  
    34    13    23 ar  
    35    14    24 1   
    36    14    25 1   
    37    14    26 1   
    38    15    30 ar  
    39    15    31 ar  
    40    15    50 1   
    41    16    17 1   
    42    16    51 1   
    43    16    64 1   
    44    17    52 1   
    45    17    53 1   
    46    17    54 1   
    47    18    64 1   
    48    19    20 3   
    49    21    55 1   
    50    22    27 ar  
    51    23    28 ar  
    52    23    56 1   
    53    27    57 1   
    54    30    58 1   
    55    31    32 1   
    56    32    33 2   
    57    32    34 2   
    58    32    35 1   
    59    35    36 1   
    60    35    59 1   
    61    35    60 1   
    62    36    61 1   
    63    36    62 1   
    64    36    63 1   
    65    44    64 1   
    66    45    64 1   
@<TRIPOS>SUBSTRUCTURE
     1 4CX         1 TEMP              0 ****  ****    0 ROOT
