@<TRIPOS>MOLECULE
4CX
   64    66     1     0     0
SMALL
abcg2


@<TRIPOS>ATOM
      1 N1          -1.2770     1.8760    -0.1980 ns         1 4CX      -0.150000
      2 C4          -6.6940     0.3190     1.2510 ca         1 4CX      -0.014000
      3 C5          -5.5140     1.0410     1.1920 ca         1 4CX      -0.111500
      4 C6          -4.9500     1.3870    -0.0320 ca         1 4CX      -0.018300
      5 C7          -3.6610     2.1460    -0.0880 c3         1 4CX      -0.126100
      6 C8          -2.4580     1.2150    -0.0780 c          1 4CX       0.609100
      7 C10          0.3380     0.0100    -0.1540 ca         1 4CX      -0.108000
      8 C13          4.1020     0.0130    -0.3310 cp         1 4CX      -0.067000
      9 C15          5.9880    -0.8090    -1.5990 ca         1 4CX      -0.117000
     10 C20          7.1880    -3.9900    -1.2380 c3         1 4CX      -0.089100
     11 C21          6.0770    -0.8100     0.7780 ca         1 4CX      -0.021000
     12 C22          4.7950    -0.2620     0.8360 ca         1 4CX      -0.045000
     13 C24          2.3800     1.8870    -0.3380 ca         1 4CX      -0.150300
     14 C26          3.4660     2.9190    -0.4330 c3         1 4CX       0.357300
     15 C28         -6.7690     0.2750    -1.1660 ca         1 4CX      -0.014000
     16 C18          8.0700    -3.2360    -0.2500 c3         1 4CX      -0.056700
     17 C19          9.5050    -3.7510    -0.3010 c3         1 4CX      -0.089100
     18 C16          6.7020    -1.0970    -0.4420 ca         1 4CX      -0.019300
     19 C23          6.7590    -1.0710     2.0050 cg         1 4CX       0.326000
     20 N2           7.3040    -1.2810     2.9990 n1         1 4CX      -0.455000
     21 C14          4.7140    -0.2650    -1.5500 ca         1 4CX      -0.061000
     22 C12          2.7100     0.5290    -0.2820 cp         1 4CX      -0.017000
     23 C25          1.0580     2.2940    -0.3040 ca         1 4CX      -0.127000
     24 F2           4.1850     2.7840    -1.5560 f          1 4CX      -0.111333
     25 F3           2.9900     4.1670    -0.4310 f          1 4CX      -0.111333
     26 F1           4.3260     2.8330     0.5900 f          1 4CX      -0.111333
     27 C11          1.6670    -0.3810    -0.1880 ca         1 4CX      -0.078000
     28 C9           0.0190     1.3650    -0.2150 ca         1 4CX      -0.018000
     29 O3          -2.5610     0.0100     0.0300 o          1 4CX      -0.560100
     30 C27         -5.5880     0.9980    -1.2060 ca         1 4CX      -0.111500
     31 C3          -7.3100    -0.0620     0.0670 ca         1 4CX      -0.261500
     32 S           -8.8000    -1.0190     0.1290 sy         1 4CX       1.038500
     33 O1          -9.4770    -0.7480     1.3980 o          1 4CX      -0.521500
     34 O2          -9.5430    -0.8020    -1.1130 o          1 4CX      -0.521500
     35 C2          -8.2140    -2.7110     0.1490 c3         1 4CX      -0.291400
     36 C1          -9.3760    -3.6870     0.1900 c3         1 4CX      -0.070100
     37 H1          -1.3400     2.8810    -0.2800 hn         1 4CX       0.154000
     38 H2          -7.1230     0.0630     2.2100 ha         1 4CX       0.139500
     39 H3          -5.0320     1.3420     2.1130 ha         1 4CX       0.119500
     40 H4          -3.6190     2.7700    -0.9860 hc         1 4CX       0.073700
     41 H5          -3.5770     2.8290     0.7620 hc         1 4CX       0.073700
     42 H6          -0.4290    -0.7430    -0.0850 ha         1 4CX       0.155000
     43 H7           6.4390    -1.0190    -2.5610 ha         1 4CX       0.122000
     44 H8           8.7350    -1.2340     0.2010 hc         1 4CX       0.055700
     45 H9           8.4810    -1.5350    -1.5060 hc         1 4CX       0.055700
     46 H10          6.1370    -3.7130    -1.1470 hc         1 4CX       0.035033
     47 H11          7.4960    -3.7940    -2.2680 hc         1 4CX       0.035033
     48 H12          7.2580    -5.0660    -1.0710 hc         1 4CX       0.035033
     49 H13          4.3450    -0.0570     1.7980 ha         1 4CX       0.131000
     50 H14         -7.2560    -0.0150    -2.0880 ha         1 4CX       0.139500
     51 H15          7.6830    -3.4130     0.7590 hc         1 4CX       0.054700
     52 H16         10.1420    -3.2370     0.4200 hc         1 4CX       0.035033
     53 H17          9.5470    -4.8180    -0.0780 hc         1 4CX       0.035033
     54 H18          9.9350    -3.6020    -1.2940 hc         1 4CX       0.035033
     55 H19          4.1870    -0.0650    -2.4740 ha         1 4CX       0.124000
     56 H20          0.8100     3.3470    -0.3450 ha         1 4CX       0.128000
     57 H21          1.8950    -1.4380    -0.1440 ha         1 4CX       0.129000
     58 H22         -5.1640     1.2650    -2.1650 ha         1 4CX       0.119500
     59 H23         -7.6030    -2.8410    -0.7450 h1         1 4CX       0.095200
     60 H24         -7.5670    -2.8080     1.0220 h1         1 4CX       0.095200
     61 H25         -8.9810    -4.7010     0.1990 hc         1 4CX       0.053367
     62 H26         -9.9810    -3.5580     1.0850 hc         1 4CX       0.053367
     63 H27        -10.0160    -3.5870    -0.6850 hc         1 4CX       0.053367
     64 C17          8.0640    -1.7210    -0.5120 c3         1 4CX      -0.039100
@<TRIPOS>BOND
     1     1     6 1   
     2     1    28 1   
     3     1    37 1   
     4     2     3 ar  
     5     2    31 ar  
     6     2    38 1   
     7     3     4 ar  
     8     3    39 1   
     9     4     5 1   
    10     4    30 ar  
    11     5     6 1   
    12     5    40 1   
    13     5    41 1   
    14     6    29 2   
    15     7    27 ar  
    16     7    28 ar  
    17     7    42 1   
    18     8    12 ar  
    19     8    21 ar  
    20     8    22 1   
    21     9    18 ar  
    22     9    21 ar  
    23     9    43 1   
    24    10    16 1   
    25    10    46 1   
    26    10    47 1   
    27    10    48 1   
    28    11    12 ar  
    29    11    18 ar  
    30    11    19 1   
    31    12    49 1   
    32    13    14 1   
    33    13    22 ar  
    34    13    23 ar  
    35    14    24 1   
    36    14    25 1   
    37    14    26 1   
    38    15    30 ar  
    39    15    31 ar  
    40    15    50 1   
    41    16    17 1   
    42    16    51 1   
    43    16    64 1   
    44    17    52 1   
    45    17    53 1   
    46    17    54 1   
    47    18    64 1   
    48    19    20 3   
    49    21    55 1   
    50    22    27 ar  
    51    23    28 ar  
    52    23    56 1   
    53    27    57 1   
    54    30    58 1   
    55    31    32 1   
    56    32    33 2   
    57    32    34 2   
    58    32    35 1   
    59    35    36 1   
    60    35    59 1   
    61    35    60 1   
    62    36    61 1   
    63    36    62 1   
    64    36    63 1   
    65    44    64 1   
    66    45    64 1   
@<TRIPOS>SUBSTRUCTURE
     1 4CX         1 TEMP              0 ****  ****    0 ROOT
