@<TRIPOS>MOLECULE
4CY
   17    16     1     0     0
SMALL
No Charge or Current Charge


@<TRIPOS>ATOM
      1 C           65.1490    17.3480    26.6530 c          1 4CY       0.718000
      2 N           64.2550    15.1070    27.6950 n8         1 4CY      -0.984200
      3 O           65.9020    17.1400    25.7090 o          1 4CY      -0.718500
      4 CA          65.1290    16.3230    27.8690 c3         1 4CY       0.018500
      5 CB          66.5580    15.8840    28.3040 c3         1 4CY      -0.044400
      6 CCS         67.0290    17.0510    31.3670 c1         1 4CY       0.309100
      7 SD          66.9250    18.0960    30.0380 ss         1 4CY      -0.076100
      8 CG          67.5260    17.0470    28.6370 c3         1 4CY       0.071600
      9 NSC         67.1430    16.3610    32.2990 n1         1 4CY      -0.530000
     10 OXT         64.3880    18.3060    26.6990 o          1 4CY      -0.718500
     11 HN          64.2190    14.5830    28.5770 hn         1 4CY       0.375000
     12 HB          66.4850    15.2230    29.1770 hc         1 4CY       0.028700
     13 HBA         67.0070    15.2840    27.5040 hc         1 4CY       0.028700
     14 HG          68.5100    16.6410    28.9030 h1         1 4CY       0.067200
     15 HGA         67.6560    17.6880    27.7560 h1         1 4CY       0.067200
     16 HNXT        63.2840    15.4080    27.5470 hn         1 4CY       0.375000
     17 H8          64.6940    16.8710    28.7150 h1         1 4CY       0.012700
@<TRIPOS>BOND
     1     1     3 1   
     2     1     4 1   
     3     1    10 1   
     4     2     4 1   
     5     2    11 1   
     6     2    16 1   
     7     4     5 1   
     8     4    17 1   
     9     5     8 1   
    10     5    12 1   
    11     5    13 1   
    12     6     7 1   
    13     6     9 3   
    14     7     8 1   
    15     8    14 1   
    16     8    15 1   
@<TRIPOS>SUBSTRUCTURE
     1 4CY         1 TEMP              0 ****  ****    0 ROOT
