@<TRIPOS>MOLECULE
4CY
   17    16     1     0     0
SMALL
abcg2


@<TRIPOS>ATOM
      1 C           65.1310    17.4030    26.9050 c          1 4CY       0.718000
      2 N           64.4000    15.0470    27.2470 n8         1 4CY      -0.984200
      3 O           64.7090    17.2770    25.7450 o          1 4CY      -0.718500
      4 CA          65.0550    16.1950    27.8590 c3         1 4CY       0.018500
      5 CB          66.4410    15.7450    28.3400 c3         1 4CY      -0.044400
      6 CCS         67.3020    17.6370    31.3600 c1         1 4CY       0.309100
      7 SD          66.6050    18.0810    29.8820 ss         1 4CY      -0.076100
      8 CG          67.4010    16.8290    28.7910 c3         1 4CY       0.071600
      9 NSC         67.7390    17.3850    32.4010 n1         1 4CY      -0.530000
     10 OXT         65.6090    18.4450    27.4170 o          1 4CY      -0.718500
     11 HN          64.1480    14.3860    27.9720 hn         1 4CY       0.375000
     12 HB          66.3070    15.0230    29.1500 hc         1 4CY       0.028700
     13 HBA         66.9330    15.2070    27.5240 hc         1 4CY       0.028700
     14 HG          68.2450    16.4010    29.3300 h1         1 4CY       0.067200
     15 HGA         67.7940    17.4020    27.9570 h1         1 4CY       0.067200
     16 HNXT        63.5320    15.3440    26.8240 hn         1 4CY       0.375000
     17 H8          64.5090    16.5540    28.7450 h1         1 4CY       0.012700
@<TRIPOS>BOND
     1     1     3 1   
     2     1     4 1   
     3     1    10 1   
     4     2     4 1   
     5     2    11 1   
     6     2    16 1   
     7     4     5 1   
     8     4    17 1   
     9     5     8 1   
    10     5    12 1   
    11     5    13 1   
    12     6     7 1   
    13     6     9 3   
    14     7     8 1   
    15     8    14 1   
    16     8    15 1   
@<TRIPOS>SUBSTRUCTURE
     1 4CY         1 TEMP              0 ****  ****    0 ROOT
