@<TRIPOS>MOLECULE
4CZ
   68    71     1     0     0
SMALL
No Charge or Current Charge


@<TRIPOS>ATOM
      1 N1           0.5750    -0.0190     1.1750 ns         1 4CZ      -0.473400
      2 C4           5.2640     1.2960     0.0350 ca         1 4CZ      -0.013000
      3 C5           4.0980     1.2070     0.8140 ca         1 4CZ      -0.111000
      4 C6           3.8940     0.1080     1.6710 ca         1 4CZ      -0.023300
      5 C7           2.6270     0.0100     2.5120 c3         1 4CZ      -0.114100
      6 C8           1.5500    -0.7840     1.7670 c          1 4CZ       0.601100
      7 C10         -2.3340    -0.1110    -0.7330 cc         1 4CZ       0.432500
      8 C13         -4.8160    -1.8960    -1.4520 ca         1 4CZ      -0.149600
      9 C15         -6.5410    -1.2440    -3.0550 ca         1 4CZ      -0.119000
     10 C17         -7.0380    -1.2550    -0.6780 ca         1 4CZ      -0.123000
     11 C20         -4.8300    -0.9030     1.9210 c3         1 4CZ      -0.056700
     12 C21         -5.8740     0.2140     2.1530 c3         1 4CZ      -0.091100
     13 C22         -4.2660    -1.4160     3.2650 c3         1 4CZ      -0.091100
     14 C24         -4.1390     1.6100    -0.6990 ca         1 4CZ      -0.078000
     15 C26         -5.1830     2.3580    -2.7670 ca         1 4CZ      -0.098000
     16 C28         -3.4170     0.6830    -2.8260 ca         1 4CZ      -0.078000
     17 C18         -5.7340    -1.7050    -0.3860 ca         1 4CZ      -0.022300
     18 C16         -7.4350    -1.0080    -2.0010 ca         1 4CZ      -0.088000
     19 C14         -5.2430    -1.7030    -2.7820 ca         1 4CZ      -0.069000
     20 C11         -2.3490    -1.4880    -0.7560 cd         1 4CZ      -0.379600
     21 S2          -0.8840    -2.0940    -0.0050 ss         1 4CZ       0.163600
     22 C23         -3.3310     0.7080    -1.4190 ca         1 4CZ      -0.132500
     23 C27         -4.3460     1.4970    -3.4970 ca         1 4CZ      -0.117000
     24 C25         -5.0730     2.4200    -1.3690 ca         1 4CZ      -0.117000
     25 N2          -1.3150     0.4950    -0.0470 nc         1 4CZ      -0.718000
     26 C9          -0.5010    -0.4210     0.4350 cd         1 4CZ       0.519300
     27 O3           1.5760    -2.0020     1.7040 o          1 4CZ      -0.544100
     28 C29          4.8710    -0.9030     1.7390 ca         1 4CZ      -0.111000
     29 C30          6.0390    -0.8210     0.9620 ca         1 4CZ      -0.013000
     30 C3           6.2390     0.2800     0.1040 ca         1 4CZ      -0.259500
     31 S1           7.7440     0.3970    -0.8860 sy         1 4CZ       1.041500
     32 O1           8.2980    -0.9520    -1.0640 o          1 4CZ      -0.518500
     33 O2           7.4840     1.2710    -2.0380 o          1 4CZ      -0.518500
     34 C2           8.8790     1.2910     0.2040 c3         1 4CZ      -0.294400
     35 C1          10.2740     1.5270    -0.4240 c3         1 4CZ      -0.071100
     36 H1           0.6750     0.9760     1.3090 hn         1 4CZ       0.341500
     37 H2           5.4030     2.1570    -0.6190 ha         1 4CZ       0.140000
     38 H3           3.3530     1.9970     0.7500 ha         1 4CZ       0.120000
     39 H4           2.8520    -0.5060     3.4520 hc         1 4CZ       0.076700
     40 H5           2.2630     1.0200     2.7340 hc         1 4CZ       0.076700
     41 H6          -6.8540    -1.0750    -4.0830 ha         1 4CZ       0.116000
     42 H7          -7.7550    -1.1080     0.1270 ha         1 4CZ       0.113000
     43 H8          -3.9880    -0.4620     1.3800 hc         1 4CZ       0.046700
     44 H9          -6.7530    -0.1750     2.6800 hc         1 4CZ       0.034200
     45 H10         -5.4460     1.0250     2.7550 hc         1 4CZ       0.034200
     46 H11         -6.2080     0.6480     1.2030 hc         1 4CZ       0.034200
     47 H12         -5.0550    -1.8840     3.8670 hc         1 4CZ       0.034200
     48 H13         -3.4760    -2.1580     3.0970 hc         1 4CZ       0.034200
     49 H14         -3.8350    -0.5910     3.8440 hc         1 4CZ       0.034200
     50 H15         -4.0420     1.6860     0.3810 ha         1 4CZ       0.121500
     51 H16         -5.9040     2.9860    -3.2860 ha         1 4CZ       0.112000
     52 H17         -2.7650     0.0270    -3.4000 ha         1 4CZ       0.121500
     53 H18         -4.6640    -2.8960     1.0770 hc         1 4CZ       0.060200
     54 H19         -6.2760    -2.4740     1.5610 hc         1 4CZ       0.060200
     55 H20         -8.4440    -0.6580    -2.2110 ha         1 4CZ       0.113000
     56 H21         -4.5590    -1.8940    -3.6060 ha         1 4CZ       0.119000
     57 H22         -4.4180     1.4600    -4.5820 ha         1 4CZ       0.114000
     58 H23         -5.7050     3.1010    -0.8030 ha         1 4CZ       0.114000
     59 H24          4.7250    -1.7590     2.3950 ha         1 4CZ       0.120000
     60 H25          6.7830    -1.6130     1.0320 ha         1 4CZ       0.140000
     61 H26          8.4040     2.2490     0.4440 h1         1 4CZ       0.092700
     62 H27          8.9710     0.7010     1.1220 h1         1 4CZ       0.092700
     63 H28         10.7620     0.5750    -0.6670 hc         1 4CZ       0.054033
     64 H29         10.1960     2.1200    -1.3440 hc         1 4CZ       0.054033
     65 H30         10.9210     2.0710     0.2760 hc         1 4CZ       0.054033
     66 C12         -3.4260    -2.4040    -1.1950 c          1 4CZ       0.630300
     67 C19         -5.3850    -2.0700     1.0630 c3         1 4CZ      -0.041100
     68 O4          -3.2080    -3.6050    -1.2890 o          1 4CZ      -0.531100
@<TRIPOS>BOND
     1     1     6 1   
     2     1    26 1   
     3     1    36 1   
     4     2     3 ar  
     5     2    30 ar  
     6     2    37 1   
     7     3     4 ar  
     8     3    38 1   
     9     4     5 1   
    10     4    28 ar  
    11     5     6 1   
    12     5    39 1   
    13     5    40 1   
    14     6    27 2   
    15     7    20 2   
    16     7    22 1   
    17     7    25 1   
    18     8    17 ar  
    19     8    19 ar  
    20     8    66 1   
    21     9    18 ar  
    22     9    19 ar  
    23     9    41 1   
    24    10    17 ar  
    25    10    18 ar  
    26    10    42 1   
    27    11    12 1   
    28    11    13 1   
    29    11    43 1   
    30    11    67 1   
    31    12    44 1   
    32    12    45 1   
    33    12    46 1   
    34    13    47 1   
    35    13    48 1   
    36    13    49 1   
    37    14    22 ar  
    38    14    24 ar  
    39    14    50 1   
    40    15    23 ar  
    41    15    24 ar  
    42    15    51 1   
    43    16    22 ar  
    44    16    23 ar  
    45    16    52 1   
    46    17    67 1   
    47    18    55 1   
    48    19    56 1   
    49    20    21 1   
    50    20    66 1   
    51    21    26 1   
    52    23    57 1   
    53    24    58 1   
    54    25    26 2   
    55    28    29 ar  
    56    28    59 1   
    57    29    30 ar  
    58    29    60 1   
    59    30    31 1   
    60    31    32 2   
    61    31    33 2   
    62    31    34 1   
    63    34    35 1   
    64    34    61 1   
    65    34    62 1   
    66    35    63 1   
    67    35    64 1   
    68    35    65 1   
    69    53    67 1   
    70    54    67 1   
    71    66    68 2   
@<TRIPOS>SUBSTRUCTURE
     1 4CZ         1 TEMP              0 ****  ****    0 ROOT
