@<TRIPOS>MOLECULE
4CZ
   68    71     1     0     0
SMALL
bcc


@<TRIPOS>ATOM
      1 N1           0.7200     1.8130    -0.2440 ns         1 4CZ      -0.540400
      2 C4           6.2700     0.2220    -0.9490 ca         1 4CZ      -0.031000
      3 C5           5.0860     0.9330    -1.0570 ca         1 4CZ      -0.129000
      4 C6           4.4010     1.3540     0.0790 ca         1 4CZ      -0.023300
      5 C7           3.1130     2.1070    -0.0520 c3         1 4CZ      -0.114100
      6 C8           1.9250     1.1780    -0.1330 c          1 4CZ       0.668100
      7 C10         -2.6640     1.0220    -0.5350 cc         1 4CZ       0.497800
      8 C13         -4.5030    -1.5240    -1.2220 ca         1 4CZ      -0.149600
      9 C15         -5.9710    -0.7250    -2.9690 ca         1 4CZ      -0.137000
     10 C17         -6.7950    -2.2080    -1.2710 ca         1 4CZ      -0.141000
     11 C20         -5.3160    -2.2860     1.8840 c3         1 4CZ      -0.056700
     12 C21         -6.6090    -1.5170     2.1320 c3         1 4CZ      -0.091100
     13 C22         -4.9990    -3.2010     3.0600 c3         1 4CZ      -0.091100
     14 C24         -5.0400     1.2400     0.2000 ca         1 4CZ      -0.096000
     15 C26         -6.4970     2.8480    -0.8370 ca         1 4CZ      -0.116000
     16 C28         -4.1990     2.6860    -1.5260 ca         1 4CZ      -0.096000
     17 C18         -5.5450    -2.2800    -0.6620 ca         1 4CZ      -0.022300
     18 C16         -7.0150    -1.4430    -2.4070 ca         1 4CZ      -0.106000
     19 C14         -4.7240    -0.7650    -2.3700 ca         1 4CZ      -0.087000
     20 C11         -2.3600    -0.3210    -0.5260 cd         1 4CZ      -0.300000
     21 S2          -0.6430    -0.5360    -0.3420 ss         1 4CZ       0.018700
     22 C23         -3.9920     1.6490    -0.6180 ca         1 4CZ      -0.132500
     23 C27         -5.4480     3.2750    -1.6420 ca         1 4CZ      -0.135000
     24 C25         -6.2870     1.8360     0.0900 ca         1 4CZ      -0.135000
     25 N2          -1.5890     1.8490    -0.4470 nc         1 4CZ      -0.718000
     26 C9          -0.4810     1.1730    -0.3460 cd         1 4CZ       0.519300
     27 O3           1.9950    -0.0320    -0.1090 o          1 4CZ      -0.544100
     28 C29          4.9170     1.0500     1.3340 ca         1 4CZ      -0.129000
     29 C30          6.1010     0.3410     1.4610 ca         1 4CZ      -0.031000
     30 C3           6.7680    -0.0660     0.3140 ca         1 4CZ      -0.259500
     31 S1           8.2940    -0.9550     0.4670 sy         1 4CZ       1.072300
     32 O1           8.3140    -1.6170     1.7710 o          1 4CZ      -0.589300
     33 O2           8.4760    -1.7710    -0.7330 o          1 4CZ      -0.589300
     34 C2           9.5430     0.3300     0.4690 c3         1 4CZ      -0.183600
     35 C1          10.9290    -0.2760     0.6100 c3         1 4CZ      -0.071100
     36 H1           0.6810     2.8240    -0.2570 hn         1 4CZ       0.341500
     37 H2           6.7890    -0.0990    -1.8420 ha         1 4CZ       0.158000
     38 H3           4.6940     1.1620    -2.0400 ha         1 4CZ       0.138000
     39 H4           2.9680     2.7850     0.7920 hc         1 4CZ       0.076700
     40 H5           3.1190     2.7340    -0.9490 hc         1 4CZ       0.076700
     41 H6          -6.1240    -0.1340    -3.8620 ha         1 4CZ       0.134000
     42 H7          -7.6160    -2.7720    -0.8420 ha         1 4CZ       0.131000
     43 H8          -4.4980    -1.5610     1.7940 hc         1 4CZ       0.046700
     44 H9          -7.4570    -2.2010     2.2160 hc         1 4CZ       0.034200
     45 H10         -6.5510    -0.9440     3.0590 hc         1 4CZ       0.034200
     46 H11         -6.8300    -0.8180     1.3250 hc         1 4CZ       0.034200
     47 H12         -5.7760    -3.9600     3.1830 hc         1 4CZ       0.034200
     48 H13         -4.0490    -3.7190     2.9180 hc         1 4CZ       0.034200
     49 H14         -4.9360    -2.6380     3.9930 hc         1 4CZ       0.034200
     50 H15         -4.8820     0.4620     0.9350 ha         1 4CZ       0.139500
     51 H16         -7.4720     3.3100    -0.9250 ha         1 4CZ       0.130000
     52 H17         -3.3850     3.0190    -2.1570 ha         1 4CZ       0.139500
     53 H18         -4.5060    -3.7420     0.5160 hc         1 4CZ       0.060200
     54 H19         -6.2470    -3.7830     0.6640 hc         1 4CZ       0.060200
     55 H20         -8.0000    -1.4150    -2.8540 ha         1 4CZ       0.131000
     56 H21         -3.9070    -0.2070    -2.8080 ha         1 4CZ       0.137000
     57 H22         -5.6010     4.0690    -2.3600 ha         1 4CZ       0.132000
     58 H23         -7.0950     1.5160     0.7340 ha         1 4CZ       0.132000
     59 H24          4.3930     1.3690     2.2260 ha         1 4CZ       0.138000
     60 H25          6.4890     0.1120     2.4440 ha         1 4CZ       0.158000
     61 H26          9.4310     0.8820    -0.4660 h1         1 4CZ       0.092700
     62 H27          9.3080     1.0010     1.2950 h1         1 4CZ       0.092700
     63 H28         11.0380    -0.8110     1.5510 hc         1 4CZ       0.054033
     64 H29         11.1570    -0.9560    -0.2100 hc         1 4CZ       0.054033
     65 H30         11.6660     0.5250     0.5930 hc         1 4CZ       0.054033
     66 C12         -3.1200    -1.5600    -0.6760 c          1 4CZ       0.630300
     67 C19         -5.3900    -3.1080     0.5870 c3         1 4CZ      -0.041100
     68 O4          -2.5650    -2.6150    -0.4110 o          1 4CZ      -0.531100
@<TRIPOS>BOND
     1     1     6 1   
     2     1    26 1   
     3     1    36 1   
     4     2     3 ar  
     5     2    30 ar  
     6     2    37 1   
     7     3     4 ar  
     8     3    38 1   
     9     4     5 1   
    10     4    28 ar  
    11     5     6 1   
    12     5    39 1   
    13     5    40 1   
    14     6    27 2   
    15     7    20 2   
    16     7    22 1   
    17     7    25 1   
    18     8    17 ar  
    19     8    19 ar  
    20     8    66 1   
    21     9    18 ar  
    22     9    19 ar  
    23     9    41 1   
    24    10    17 ar  
    25    10    18 ar  
    26    10    42 1   
    27    11    12 1   
    28    11    13 1   
    29    11    43 1   
    30    11    67 1   
    31    12    44 1   
    32    12    45 1   
    33    12    46 1   
    34    13    47 1   
    35    13    48 1   
    36    13    49 1   
    37    14    22 ar  
    38    14    24 ar  
    39    14    50 1   
    40    15    23 ar  
    41    15    24 ar  
    42    15    51 1   
    43    16    22 ar  
    44    16    23 ar  
    45    16    52 1   
    46    17    67 1   
    47    18    55 1   
    48    19    56 1   
    49    20    21 1   
    50    20    66 1   
    51    21    26 1   
    52    23    57 1   
    53    24    58 1   
    54    25    26 2   
    55    28    29 ar  
    56    28    59 1   
    57    29    30 ar  
    58    29    60 1   
    59    30    31 1   
    60    31    32 2   
    61    31    33 2   
    62    31    34 1   
    63    34    35 1   
    64    34    61 1   
    65    34    62 1   
    66    35    63 1   
    67    35    64 1   
    68    35    65 1   
    69    53    67 1   
    70    54    67 1   
    71    66    68 2   
@<TRIPOS>SUBSTRUCTURE
     1 4CZ         1 TEMP              0 ****  ****    0 ROOT
