@<TRIPOS>MOLECULE
4D0
   57    59     1     0     0
SMALL
No Charge or Current Charge


@<TRIPOS>ATOM
      1 C11          5.9430    -1.1420     0.6610 ca         1 4D0      -0.098500
      2 C13          5.2350     1.0470    -0.1080 ca         1 4D0      -0.098500
      3 C14          3.9830     0.8560     0.5010 ca         1 4D0      -0.107500
      4 C15          7.5780     0.2550    -0.6910 cp         1 4D0      -0.036000
      5 C16          8.7630    -0.2640    -0.1100 ca         1 4D0      -0.099000
      6 C17         10.0160    -0.0730    -0.7190 ca         1 4D0      -0.111000
      7 C20          7.6990     0.9730    -1.9090 ca         1 4D0      -0.099000
      8 C19          8.9520     1.1640    -2.5190 ca         1 4D0      -0.111000
      9 C18         10.1110     0.6410    -1.9240 ca         1 4D0      -0.106000
     10 C12          6.2430     0.0520    -0.0420 cp         1 4D0      -0.031000
     11 C10          4.6910    -1.3340     1.2690 ca         1 4D0      -0.107500
     12 C9           3.7040    -0.3350     1.1950 ca         1 4D0      -0.085300
     13 C8           2.3460    -0.5450     1.8500 c3         1 4D0      -0.019100
     14 C7           1.3550    -1.2630     0.9060 c3         1 4D0      -0.164400
     15 C5          -0.0090    -1.4650     1.5730 c          1 4D0       0.615100
     16 O6          -0.1850    -2.3160     2.4320 o          1 4D0      -0.514100
     17 N4          -1.0090    -0.6670     1.0800 ns         1 4D0      -0.497500
     18 C2          -2.3540    -0.7280     1.2870 c          1 4D0       0.666100
     19 O3          -2.9060    -1.5240     2.0270 o          1 4D0      -0.550100
     20 N1          -3.0320     0.2260     0.5820 ns         1 4D0      -0.520900
     21 C1          -4.4860     0.3030     0.4970 c6         1 4D0       0.307700
     22 O5          -4.8730    -0.6460    -0.5140 os         1 4D0      -0.464000
     23 C21         -6.3090    -0.7630    -0.7130 c6         1 4D0       0.179300
     24 C6          -6.5760    -1.9050    -1.7500 c3         1 4D0       0.172600
     25 O1          -6.0090    -3.1750    -1.3660 oh         1 4D0      -0.705000
     26 C4          -6.8890     0.6100    -1.1790 c6         1 4D0       0.142300
     27 O4          -8.3200     0.5750    -1.3380 oh         1 4D0      -0.714000
     28 C3          -6.5040     1.7050    -0.1430 c6         1 4D0       0.139300
     29 O7          -6.9680     2.9980    -0.5680 oh         1 4D0      -0.666000
     30 C22         -4.9640     1.7330     0.0720 c6         1 4D0       0.100300
     31 O2          -4.6290     2.7440     1.0540 oh         1 4D0      -0.714000
     32 H1           6.6820    -1.9370     0.7220 ha         1 4D0       0.115500
     33 H2           5.4290     1.9820    -0.6260 ha         1 4D0       0.115500
     34 H3           3.2300     1.6380     0.4340 ha         1 4D0       0.113000
     35 H4           8.7150    -0.8080     0.8300 ha         1 4D0       0.113500
     36 H5          10.9130    -0.4760    -0.2540 ha         1 4D0       0.113000
     37 H6           6.8130     1.3750    -2.3940 ha         1 4D0       0.113500
     38 H7           9.0220     1.7140    -3.4550 ha         1 4D0       0.113000
     39 H8          11.0800     0.7890    -2.3960 ha         1 4D0       0.114000
     40 H9           4.4870    -2.2640     1.7960 ha         1 4D0       0.113000
     41 H10          2.4600    -1.1320     2.7710 hc         1 4D0       0.065700
     42 H11          1.9210     0.4190     2.1570 hc         1 4D0       0.065700
     43 H12          1.2490    -0.6600    -0.0040 hc         1 4D0       0.062200
     44 H13          1.7700    -2.2450     0.6520 hc         1 4D0       0.062200
     45 H14         -0.7060     0.0190     0.4090 hn         1 4D0       0.308500
     46 H15         -2.4940     0.8160    -0.0370 hn         1 4D0       0.305500
     47 H16         -4.9300     0.0280     1.4670 h2         1 4D0       0.092700
     48 H17         -6.7770    -1.0530     0.2400 h1         1 4D0       0.069700
     49 H18         -7.6620    -2.0060    -1.8770 h1         1 4D0       0.034700
     50 H19         -6.1640    -1.5870    -2.7180 h1         1 4D0       0.034700
     51 H20         -6.1730    -3.8000    -2.1100 ho         1 4D0       0.504000
     52 H21         -6.4180     0.8670    -2.1400 h1         1 4D0       0.051700
     53 H22         -8.5980     1.5240    -1.3310 ho         1 4D0       0.525000
     54 H23         -6.9720     1.4450     0.8190 h1         1 4D0       0.059700
     55 H24         -6.4190     3.6370    -0.0550 ho         1 4D0       0.467000
     56 H25         -4.4870     1.9780    -0.8890 h1         1 4D0       0.048700
     57 H26         -3.6660     2.6580     1.2510 ho         1 4D0       0.516000
@<TRIPOS>BOND
     1     1    10 ar  
     2     1    11 ar  
     3     1    32 1   
     4     2     3 ar  
     5     2    10 ar  
     6     2    33 1   
     7     3    12 ar  
     8     3    34 1   
     9     4     5 ar  
    10     4     7 ar  
    11     4    10 1   
    12     5     6 ar  
    13     5    35 1   
    14     6     9 ar  
    15     6    36 1   
    16     7     8 ar  
    17     7    37 1   
    18     8     9 ar  
    19     8    38 1   
    20     9    39 1   
    21    11    12 ar  
    22    11    40 1   
    23    12    13 1   
    24    13    14 1   
    25    13    41 1   
    26    13    42 1   
    27    14    15 1   
    28    14    43 1   
    29    14    44 1   
    30    15    16 2   
    31    15    17 1   
    32    17    18 1   
    33    17    45 1   
    34    18    19 2   
    35    18    20 1   
    36    20    21 1   
    37    20    46 1   
    38    21    22 1   
    39    21    30 1   
    40    21    47 1   
    41    22    23 1   
    42    23    24 1   
    43    23    26 1   
    44    23    48 1   
    45    24    25 1   
    46    24    49 1   
    47    24    50 1   
    48    25    51 1   
    49    26    27 1   
    50    26    28 1   
    51    26    52 1   
    52    27    53 1   
    53    28    29 1   
    54    28    30 1   
    55    28    54 1   
    56    29    55 1   
    57    30    31 1   
    58    30    56 1   
    59    31    57 1   
@<TRIPOS>SUBSTRUCTURE
     1 4D0         1 TEMP              0 ****  ****    0 ROOT
