@<TRIPOS>MOLECULE
4D0
   57    59     1     0     0
SMALL
abcg2


@<TRIPOS>ATOM
      1 C11          5.8290    -1.3490     0.2090 ca         1 4D0      -0.098500
      2 C13          5.6010     1.0060     0.5550 ca         1 4D0      -0.098500
      3 C14          4.3950     0.7920     1.2030 ca         1 4D0      -0.107500
      4 C15          7.6270     0.1670    -0.6460 cp         1 4D0      -0.036000
      5 C16          8.6930    -0.7210    -0.4890 ca         1 4D0      -0.099000
      6 C17          9.9000    -0.5050    -1.1370 ca         1 4D0      -0.111000
      7 C20          7.8070     1.2780    -1.4730 ca         1 4D0      -0.099000
      8 C19          9.0140     1.4950    -2.1200 ca         1 4D0      -0.111000
      9 C18         10.0670     0.6040    -1.9560 ca         1 4D0      -0.106000
     10 C12          6.3410    -0.0610     0.0440 cp         1 4D0      -0.031000
     11 C10          4.6210    -1.5590     0.8570 ca         1 4D0      -0.107500
     12 C9           3.8840    -0.4940     1.3660 ca         1 4D0      -0.085300
     13 C8           2.5580    -0.7140     2.0390 c3         1 4D0      -0.019100
     14 C7           1.4110    -0.5470     1.0480 c3         1 4D0      -0.164400
     15 C5           0.0480    -0.7550     1.6690 c          1 4D0       0.615100
     16 O6          -0.1250    -1.3220     2.7210 o          1 4D0      -0.514100
     17 N4          -0.9690    -0.2430     0.8910 ns         1 4D0      -0.497500
     18 C2          -2.3330    -0.3040     1.1530 c          1 4D0       0.666100
     19 O3          -2.8080    -0.8490     2.1240 o          1 4D0      -0.550100
     20 N1          -3.0690     0.3480     0.2100 ns         1 4D0      -0.520900
     21 C1          -4.4930     0.3290     0.2090 c6         1 4D0       0.307700
     22 O5          -4.9320    -0.7130    -0.6300 os         1 4D0      -0.464000
     23 C21         -6.3340    -0.8870    -0.6170 c6         1 4D0       0.179300
     24 C6          -6.6570    -2.0990    -1.4650 c3         1 4D0       0.172600
     25 O1          -6.0650    -3.2340    -0.8810 oh         1 4D0      -0.705000
     26 C4          -7.0130     0.3760    -1.1500 c6         1 4D0       0.142300
     27 O4          -8.4050     0.1950    -1.0690 oh         1 4D0      -0.714000
     28 C3          -6.5650     1.5830    -0.3340 c6         1 4D0       0.139300
     29 O7          -7.1440     2.7250    -0.9180 oh         1 4D0      -0.666000
     30 C22         -5.0460     1.6670    -0.2870 c6         1 4D0       0.100300
     31 O2          -4.7050     2.7180     0.5810 oh         1 4D0      -0.714000
     32 H1           6.3690    -2.2000    -0.1880 ha         1 4D0       0.115500
     33 H2           5.9790     2.0170     0.4680 ha         1 4D0       0.115500
     34 H3           3.8490     1.6400     1.6000 ha         1 4D0       0.113000
     35 H4           8.5870    -1.5800     0.1630 ha         1 4D0       0.113500
     36 H5          10.7170    -1.2010    -0.9930 ha         1 4D0       0.113000
     37 H6           6.9900     1.9720    -1.6300 ha         1 4D0       0.113500
     38 H7           9.1300     2.3600    -2.7610 ha         1 4D0       0.113000
     39 H8          11.0090     0.7730    -2.4610 ha         1 4D0       0.114000
     40 H9           4.2470    -2.5700     0.9670 ha         1 4D0       0.113000
     41 H10          2.5260    -1.7120     2.4790 hc         1 4D0       0.065700
     42 H11          2.4390    -0.0000     2.8570 hc         1 4D0       0.065700
     43 H12          1.4550     0.4410     0.5810 hc         1 4D0       0.062200
     44 H13          1.5110    -1.2680     0.2290 hc         1 4D0       0.062200
     45 H14         -0.6790     0.2340     0.0500 hn         1 4D0       0.308500
     46 H15         -2.6150     0.6700    -0.6340 hn         1 4D0       0.305500
     47 H16         -4.8370     0.1620     1.2370 h2         1 4D0       0.092700
     48 H17         -6.6800    -1.0640     0.4140 h1         1 4D0       0.069700
     49 H18         -7.7460    -2.1970    -1.5280 h1         1 4D0       0.034700
     50 H19         -6.2900    -1.9250    -2.4870 h1         1 4D0       0.034700
     51 H20         -6.2890    -3.9950    -1.4230 ho         1 4D0       0.504000
     52 H21         -6.6930     0.5230    -2.1940 h1         1 4D0       0.051700
     53 H22         -8.8290     1.0030    -1.3770 ho         1 4D0       0.525000
     54 H23         -6.9270     1.4450     0.6980 h1         1 4D0       0.059700
     55 H24         -7.0250     3.4700    -0.3200 ho         1 4D0       0.467000
     56 H25         -4.6690     1.8470    -1.3060 h1         1 4D0       0.048700
     57 H26         -3.7610     2.8880     0.5080 ho         1 4D0       0.516000
@<TRIPOS>BOND
     1     1    10 ar  
     2     1    11 ar  
     3     1    32 1   
     4     2     3 ar  
     5     2    10 ar  
     6     2    33 1   
     7     3    12 ar  
     8     3    34 1   
     9     4     5 ar  
    10     4     7 ar  
    11     4    10 1   
    12     5     6 ar  
    13     5    35 1   
    14     6     9 ar  
    15     6    36 1   
    16     7     8 ar  
    17     7    37 1   
    18     8     9 ar  
    19     8    38 1   
    20     9    39 1   
    21    11    12 ar  
    22    11    40 1   
    23    12    13 1   
    24    13    14 1   
    25    13    41 1   
    26    13    42 1   
    27    14    15 1   
    28    14    43 1   
    29    14    44 1   
    30    15    16 2   
    31    15    17 1   
    32    17    18 1   
    33    17    45 1   
    34    18    19 2   
    35    18    20 1   
    36    20    21 1   
    37    20    46 1   
    38    21    22 1   
    39    21    30 1   
    40    21    47 1   
    41    22    23 1   
    42    23    24 1   
    43    23    26 1   
    44    23    48 1   
    45    24    25 1   
    46    24    49 1   
    47    24    50 1   
    48    25    51 1   
    49    26    27 1   
    50    26    28 1   
    51    26    52 1   
    52    27    53 1   
    53    28    29 1   
    54    28    30 1   
    55    28    54 1   
    56    29    55 1   
    57    30    31 1   
    58    30    56 1   
    59    31    57 1   
@<TRIPOS>SUBSTRUCTURE
     1 4D0         1 TEMP              0 ****  ****    0 ROOT
