@<TRIPOS>MOLECULE
4D1
   54    55     1     0     0
SMALL
abcg2


@<TRIPOS>ATOM
      1 C14          5.8830     0.7060    -1.1750 ca         1 4D1      -0.081000
      2 C5           1.0010     0.4290    -1.3320 c          1 4D1       0.623300
      3 C11          6.1840    -0.5710     1.2510 ca         1 4D1      -0.113500
      4 C7           2.2510     0.1060    -0.6170 ce         1 4D1      -0.320200
      5 C8           3.4360     0.5040    -1.0960 cf         1 4D1      -0.057200
      6 C9           4.7420     0.2670    -0.4970 ca         1 4D1      -0.087800
      7 C10          4.9170    -0.3780     0.7310 ca         1 4D1      -0.081000
      8 C12          7.3230    -0.1350     0.5740 ca         1 4D1      -0.052300
      9 C13          7.1490     0.5060    -0.6510 ca         1 4D1      -0.113500
     10 N1          -2.2990    -0.5390    -0.2190 ns         1 4D1      -0.519900
     11 C16          9.5040    -1.3320     0.2830 c3         1 4D1      -0.085100
     12 C15          8.6980    -0.3660     1.1520 c3         1 4D1      -0.020400
     13 C17          9.4560     0.9450     1.3590 c3         1 4D1      -0.085100
     14 O6           0.9570     1.0600    -2.3670 o          1 4D1      -0.524100
     15 N4          -0.1140    -0.0660    -0.6850 ns         1 4D1      -0.490500
     16 C2          -1.4380     0.0770    -1.0790 c          1 4D1       0.666100
     17 O3          -1.7880     0.6590    -2.0810 o          1 4D1      -0.549100
     18 C1          -3.7120    -0.3880    -0.3220 c6         1 4D1       0.306700
     19 O5          -4.1020     0.7310     0.4390 os         1 4D1      -0.465000
     20 C18         -5.4820     1.0210     0.3460 c6         1 4D1       0.179300
     21 C6          -5.7360     2.3050     1.1050 c3         1 4D1       0.172600
     22 O1          -5.0430     3.3530     0.4700 oh         1 4D1      -0.705000
     23 C4          -6.2890    -0.1480     0.9120 c6         1 4D1       0.143300
     24 O4          -7.6550     0.1470     0.7680 oh         1 4D1      -0.715000
     25 C3          -5.9190    -1.4260     0.1690 c6         1 4D1       0.139300
     26 O7          -6.6180    -2.4860     0.7750 oh         1 4D1      -0.666000
     27 C19         -4.4130    -1.6470     0.1960 c6         1 4D1       0.101300
     28 O2          -4.1330    -2.7610    -0.6110 oh         1 4D1      -0.715000
     29 H1           5.7740     1.2120    -2.1270 ha         1 4D1       0.114000
     30 H2           6.2920    -1.0730     2.2060 ha         1 4D1       0.115500
     31 H3           2.1770    -0.4620     0.3030 ha         1 4D1       0.176000
     32 H4           3.4450     1.0620    -2.0270 ha         1 4D1       0.198000
     33 H5           4.0620    -0.7310     1.2940 ha         1 4D1       0.114000
     34 H6           8.0090     0.8590    -1.2080 ha         1 4D1       0.115500
     35 H7          -1.9450    -0.8870     0.6610 hn         1 4D1       0.302500
     36 H8           9.7070    -0.9030    -0.7000 hc         1 4D1       0.036700
     37 H9          10.4630    -1.5560     0.7510 hc         1 4D1       0.036700
     38 H10          8.9740    -2.2740     0.1340 hc         1 4D1       0.036700
     39 H11          8.5650    -0.8330     2.1330 hc         1 4D1       0.050700
     40 H12          8.8950     1.6390     1.9850 hc         1 4D1       0.036700
     41 H13         10.4160     0.7550     1.8420 hc         1 4D1       0.036700
     42 H14          9.6630     1.4410     0.4080 hc         1 4D1       0.036700
     43 H15          0.0620    -0.5830     0.1640 hn         1 4D1       0.308500
     44 H16         -3.9740    -0.2430    -1.3780 h2         1 4D1       0.092700
     45 H17         -5.7680     1.1650    -0.7090 h1         1 4D1       0.068700
     46 H18         -6.8160     2.4880     1.1260 h1         1 4D1       0.034700
     47 H19         -5.4120     2.1710     2.1470 h1         1 4D1       0.034700
     48 H20         -5.2420     4.1670     0.9400 ho         1 4D1       0.503000
     49 H21         -6.0190    -0.2720     1.9740 h1         1 4D1       0.051700
     50 H22         -8.1610    -0.6000     1.1040 ho         1 4D1       0.525000
     51 H23         -6.2270    -1.3040    -0.8820 h1         1 4D1       0.059700
     52 H24         -6.5400    -3.2660     0.2170 ho         1 4D1       0.467000
     53 H25         -4.1010    -1.8150     1.2390 h1         1 4D1       0.047700
     54 H26         -3.2050    -2.9950    -0.5090 ho         1 4D1       0.517000
@<TRIPOS>BOND
     1     1     6 ar  
     2     1     9 ar  
     3     1    29 1   
     4     2     4 1   
     5     2    14 2   
     6     2    15 1   
     7     3     7 ar  
     8     3     8 ar  
     9     3    30 1   
    10     4     5 2   
    11     4    31 1   
    12     5     6 1   
    13     5    32 1   
    14     6     7 ar  
    15     7    33 1   
    16     8     9 ar  
    17     8    12 1   
    18     9    34 1   
    19    10    16 1   
    20    10    18 1   
    21    10    35 1   
    22    11    12 1   
    23    11    36 1   
    24    11    37 1   
    25    11    38 1   
    26    12    13 1   
    27    12    39 1   
    28    13    40 1   
    29    13    41 1   
    30    13    42 1   
    31    15    16 1   
    32    15    43 1   
    33    16    17 2   
    34    18    19 1   
    35    18    27 1   
    36    18    44 1   
    37    19    20 1   
    38    20    21 1   
    39    20    23 1   
    40    20    45 1   
    41    21    22 1   
    42    21    46 1   
    43    21    47 1   
    44    22    48 1   
    45    23    24 1   
    46    23    25 1   
    47    23    49 1   
    48    24    50 1   
    49    25    26 1   
    50    25    27 1   
    51    25    51 1   
    52    26    52 1   
    53    27    28 1   
    54    27    53 1   
    55    28    54 1   
@<TRIPOS>SUBSTRUCTURE
     1 4D1         1 TEMP              0 ****  ****    0 ROOT
