@<TRIPOS>MOLECULE
4D1
   54    55     1     0     0
SMALL
No Charge or Current Charge


@<TRIPOS>ATOM
      1 C14          5.9390     0.8310    -1.1560 ca         1 4D1      -0.081000
      2 C5           0.9490     0.5420    -1.4550 c          1 4D1       0.623300
      3 C11          6.1780    -0.7240     1.1630 ca         1 4D1      -0.113500
      4 C7           2.2140     0.1910    -0.7560 ce         1 4D1      -0.320200
      5 C8           3.4570     0.5900    -1.1610 cf         1 4D1      -0.057200
      6 C9           4.7760     0.3080    -0.5560 ca         1 4D1      -0.087800
      7 C10          4.9090    -0.4740     0.6110 ca         1 4D1      -0.081000
      8 C12          7.3380    -0.2010     0.5620 ca         1 4D1      -0.052300
      9 C13          7.2060     0.5800    -0.6040 ca         1 4D1      -0.113500
     10 N1          -2.3110    -0.5310    -0.3650 ns         1 4D1      -0.519900
     11 C16          9.6100    -1.2850     0.2030 c3         1 4D1      -0.085100
     12 C15          8.7140    -0.4800     1.1710 c3         1 4D1      -0.020400
     13 C17          9.4030     0.8220     1.6360 c3         1 4D1      -0.085100
     14 O6           0.9270     1.2280    -2.4650 o          1 4D1      -0.524100
     15 N4          -0.1700     0.0270    -0.8610 ns         1 4D1      -0.490500
     16 C2          -1.4800     0.1420    -1.2170 c          1 4D1       0.666100
     17 O3          -1.8830     0.7560    -2.1890 o          1 4D1      -0.549100
     18 C1          -3.7660    -0.4630    -0.4160 c6         1 4D1       0.306700
     19 O5          -4.1310     0.7500     0.2700 os         1 4D1      -0.465000
     20 C18         -5.5580     1.0310     0.2780 c6         1 4D1       0.179300
     21 C6          -5.7850     2.4250     0.9520 c3         1 4D1       0.172600
     22 O1          -5.0580     3.4980     0.3160 oh         1 4D1      -0.705000
     23 C4          -6.3160    -0.1160     1.0180 c6         1 4D1       0.143300
     24 O4          -7.7430     0.0760     1.0110 oh         1 4D1      -0.715000
     25 C3          -5.9670    -1.4760     0.3460 c6         1 4D1       0.139300
     26 O7          -6.5980    -2.5670     1.0380 oh         1 4D1      -0.666000
     27 C19         -4.4270    -1.6850     0.3090 c6         1 4D1       0.101300
     28 O2          -4.1220    -2.9440    -0.3370 oh         1 4D1      -0.715000
     29 H1           5.8650     1.4360    -2.0570 ha         1 4D1       0.114000
     30 H2           6.2540    -1.3290     2.0630 ha         1 4D1       0.115500
     31 H3           2.1120    -0.4250     0.1330 ha         1 4D1       0.176000
     32 H4           3.5110     1.2080    -2.0620 ha         1 4D1       0.198000
     33 H5           4.0370    -0.8940     1.1020 ha         1 4D1       0.114000
     34 H6           8.0870     0.9950    -1.0870 ha         1 4D1       0.115500
     35 H7          -1.8900    -0.9740     0.4400 hn         1 4D1       0.302500
     36 H8           9.8330    -0.7080    -0.7030 hc         1 4D1       0.036700
     37 H9          10.5600    -1.5470     0.6830 hc         1 4D1       0.036700
     38 H10          9.1120    -2.2150    -0.0960 hc         1 4D1       0.036700
     39 H11          8.5840    -1.1020     2.0660 hc         1 4D1       0.050700
     40 H12          8.7600     1.3660     2.3400 hc         1 4D1       0.036700
     41 H13         10.3490     0.5990     2.1440 hc         1 4D1       0.036700
     42 H14          9.6180     1.4830     0.7880 hc         1 4D1       0.036700
     43 H15          0.0070    -0.5180    -0.0340 hn         1 4D1       0.308500
     44 H16         -4.1000    -0.4220    -1.4660 h2         1 4D1       0.092700
     45 H17         -5.9140     1.0930    -0.7610 h1         1 4D1       0.068700
     46 H18         -6.8610     2.6450     0.9340 h1         1 4D1       0.034700
     47 H19         -5.4890     2.3450     2.0070 h1         1 4D1       0.034700
     48 H20         -5.2140     4.3090     0.8530 ho         1 4D1       0.503000
     49 H21         -5.9540    -0.1450     2.0580 h1         1 4D1       0.051700
     50 H22         -8.1180    -0.8150     1.2190 ho         1 4D1       0.525000
     51 H23         -6.3250    -1.4440    -0.6950 h1         1 4D1       0.059700
     52 H24         -6.0800    -3.3610     0.7680 ho         1 4D1       0.467000
     53 H25         -4.0570    -1.7020     1.3460 h1         1 4D1       0.047700
     54 H26         -3.1420    -2.9930    -0.4460 ho         1 4D1       0.517000
@<TRIPOS>BOND
     1     1     6 ar  
     2     1     9 ar  
     3     1    29 1   
     4     2     4 1   
     5     2    14 2   
     6     2    15 1   
     7     3     7 ar  
     8     3     8 ar  
     9     3    30 1   
    10     4     5 2   
    11     4    31 1   
    12     5     6 1   
    13     5    32 1   
    14     6     7 ar  
    15     7    33 1   
    16     8     9 ar  
    17     8    12 1   
    18     9    34 1   
    19    10    16 1   
    20    10    18 1   
    21    10    35 1   
    22    11    12 1   
    23    11    36 1   
    24    11    37 1   
    25    11    38 1   
    26    12    13 1   
    27    12    39 1   
    28    13    40 1   
    29    13    41 1   
    30    13    42 1   
    31    15    16 1   
    32    15    43 1   
    33    16    17 2   
    34    18    19 1   
    35    18    27 1   
    36    18    44 1   
    37    19    20 1   
    38    20    21 1   
    39    20    23 1   
    40    20    45 1   
    41    21    22 1   
    42    21    46 1   
    43    21    47 1   
    44    22    48 1   
    45    23    24 1   
    46    23    25 1   
    47    23    49 1   
    48    24    50 1   
    49    25    26 1   
    50    25    27 1   
    51    25    51 1   
    52    26    52 1   
    53    27    28 1   
    54    27    53 1   
    55    28    54 1   
@<TRIPOS>SUBSTRUCTURE
     1 4D1         1 TEMP              0 ****  ****    0 ROOT
