@<TRIPOS>MOLECULE
4D2
   51    53     1     0     0
SMALL
No Charge or Current Charge


@<TRIPOS>ATOM
      1 C1           6.2390    -1.8890     0.6570 ca         1 4D2      -0.184000
      2 C2           5.2890    -1.5960    -0.3330 ca         1 4D2      -0.031000
      3 C3          -2.7450    -0.7050    -1.9870 ca         1 4D2      -0.138000
      4 C4          -3.5980    -1.7820    -1.6730 ca         1 4D2      -0.131000
      5 C5           5.8950    -1.7250     2.0070 ca         1 4D2       0.340900
      6 C6           3.7610    -1.0100     1.4470 ca         1 4D2       0.359900
      7 C7           4.0120    -1.1460     0.0660 ca         1 4D2      -0.198600
      8 C8          -3.0430     0.2250     0.2690 ca         1 4D2      -0.098600
      9 C9          -2.4550     0.3000    -1.0270 ca         1 4D2      -0.071300
     10 C10         -4.1470    -1.8310    -0.3900 ca         1 4D2       0.028100
     11 C11         -3.8820    -0.8670     0.5440 ca         1 4D2       0.066100
     12 C12          2.9670    -0.8160    -0.9640 c          1 4D2       0.613700
     13 C14         -5.1780    -2.3990     1.4780 c5         1 4D2       0.371600
     14 C17         -1.5140     1.4440    -1.4180 c3         1 4D2      -0.020100
     15 C18          0.7280     2.6190    -1.1350 c3         1 4D2      -0.063400
     16 C19          0.6140     0.0180    -1.3430 c3         1 4D2       0.097000
     17 C20          2.1340     2.7810    -0.4860 c3         1 4D2      -0.056700
     18 C21         -0.0780     1.3150    -0.8320 c3         1 4D2      -0.076700
     19 N22          4.6780    -1.2930     2.4020 nb         1 4D2      -0.670000
     20 N23          1.7330    -0.4120    -0.4970 ns         1 4D2      -0.483900
     21 O24         -2.0660     0.9810     2.2620 o          1 4D2      -0.705500
     22 O25          3.2000    -0.8960    -2.1620 o          1 4D2      -0.621100
     23 O26         -3.3770     2.3420     1.2210 o          1 4D2      -0.705500
     24 O27         -5.0000    -2.7810     0.0690 os         1 4D2      -0.370100
     25 O28         -4.5470    -1.0920     1.7080 os         1 4D2      -0.316100
     26 H1           7.2320    -2.2390     0.3870 ha         1 4D2       0.117000
     27 H2           5.5410    -1.7180    -1.3850 ha         1 4D2       0.134000
     28 H5           6.6140    -1.9450     2.7950 h4         1 4D2       0.011100
     29 H3          -2.3040    -0.6520    -2.9790 ha         1 4D2       0.094000
     30 H4          -3.8240    -2.5510    -2.4070 ha         1 4D2       0.109000
     31 H6           2.7990    -0.6630     1.8200 h4         1 4D2       0.040100
     32 H171        -1.4430     1.5150    -2.5100 hc         1 4D2       0.053200
     33 H172        -1.9520     2.3970    -1.0980 hc         1 4D2       0.053200
     34 H23          1.6000    -0.3940     0.5050 hn         1 4D2       0.321500
     35 H141        -6.2460    -2.3430     1.7160 h2         1 4D2       0.040700
     36 H142        -4.6860    -3.1460     2.1120 h2         1 4D2       0.040700
     37 H151         3.8170     4.1800    -0.5470 hc         1 4D2       0.030700
     38 H152         2.8800     4.1190    -2.0500 hc         1 4D2       0.030700
     39 H153         2.2250     4.9660    -0.6310 hc         1 4D2       0.030700
     40 H20          2.7770     1.9700    -0.8450 hc         1 4D2       0.037700
     41 H161         1.4450     3.4930     1.4680 hc         1 4D2       0.030700
     42 H162         1.7430     1.7420     1.4130 hc         1 4D2       0.030700
     43 H163         3.1060     2.8640     1.4730 hc         1 4D2       0.030700
     44 H21         -0.1920     1.2280     0.2540 hc         1 4D2       0.095700
     45 H181         0.1220     3.4800    -0.8250 hc         1 4D2       0.036700
     46 H182         0.8370     2.7070    -2.2240 hc         1 4D2       0.036700
     47 H191        -0.1050    -0.8100    -1.3530 h1         1 4D2       0.055700
     48 H192         0.9510     0.1720    -2.3770 h1         1 4D2       0.055700
     49 C13         -2.8070     1.2640     1.3310 c          1 4D2       0.722600
     50 C15          2.8040     4.0920    -0.9570 c3         1 4D2      -0.088100
     51 C16          2.1010     2.7150     1.0600 c3         1 4D2      -0.088100
@<TRIPOS>BOND
     1     1     2 ar  
     2     1     5 ar  
     3     1    26 1   
     4     2     7 ar  
     5     2    27 1   
     6     3     4 ar  
     7     3     9 ar  
     8     3    29 1   
     9     4    10 ar  
    10     4    30 1   
    11     5    19 ar  
    12     5    28 1   
    13     6     7 ar  
    14     6    19 ar  
    15     6    31 1   
    16     7    12 1   
    17     8     9 ar  
    18     8    11 ar  
    19     8    49 1   
    20     9    14 1   
    21    10    11 ar  
    22    10    24 1   
    23    11    25 1   
    24    12    20 1   
    25    12    22 2   
    26    13    24 1   
    27    13    25 1   
    28    13    35 1   
    29    13    36 1   
    30    14    18 1   
    31    14    32 1   
    32    14    33 1   
    33    15    17 1   
    34    15    18 1   
    35    15    45 1   
    36    15    46 1   
    37    16    18 1   
    38    16    20 1   
    39    16    47 1   
    40    16    48 1   
    41    17    40 1   
    42    17    50 1   
    43    17    51 1   
    44    18    44 1   
    45    20    34 1   
    46    21    49 1   
    47    23    49 1   
    48    37    50 1   
    49    38    50 1   
    50    39    50 1   
    51    41    51 1   
    52    42    51 1   
    53    43    51 1   
@<TRIPOS>SUBSTRUCTURE
     1 4D2         1 TEMP              0 ****  ****    0 ROOT
