@<TRIPOS>MOLECULE
4D2
   51    53     1     0     0
SMALL
abcg2


@<TRIPOS>ATOM
      1 C1           6.1240    -1.9100     0.6140 ca         1 4D2      -0.184000
      2 C2           5.1430    -1.7380    -0.3490 ca         1 4D2      -0.031000
      3 C3          -2.8220    -0.6600    -2.0400 ca         1 4D2      -0.138000
      4 C4          -3.7280    -1.6820    -1.7300 ca         1 4D2      -0.131000
      5 C5           5.9340    -1.3370     1.8650 ca         1 4D2       0.340900
      6 C6           3.9250    -0.4690     1.2600 ca         1 4D2       0.359900
      7 C7           4.0030    -1.0110    -0.0190 ca         1 4D2      -0.198600
      8 C8          -2.9120     0.2590     0.2040 ca         1 4D2      -0.098600
      9 C9          -2.4240     0.3000    -1.1170 ca         1 4D2      -0.071300
     10 C10         -4.1870    -1.7050    -0.4430 ca         1 4D2       0.028100
     11 C11         -3.7730    -0.7740     0.4930 ca         1 4D2       0.066100
     12 C12          2.9540    -0.7720    -1.0560 c          1 4D2       0.613700
     13 C14         -5.1030    -2.2450     1.5060 c5         1 4D2       0.371600
     14 C17         -1.4190     1.3490    -1.5060 c3         1 4D2      -0.020100
     15 C18          0.8080     2.4070    -1.1100 c3         1 4D2      -0.063400
     16 C19          0.5750    -0.1440    -1.3330 c3         1 4D2       0.097000
     17 C20          2.0990     2.6210    -0.3080 c3         1 4D2      -0.056700
     18 C21         -0.0440     1.1610    -0.8390 c3         1 4D2      -0.076700
     19 N22          4.8650    -0.6230     2.1840 nb         1 4D2      -0.670000
     20 N23          1.7300    -0.5510    -0.5600 ns         1 4D2      -0.483900
     21 O24         -2.0100     0.7600     2.3250 o          1 4D2      -0.705500
     22 O25          3.2700    -0.6280    -2.2310 o          1 4D2      -0.621100
     23 O26         -2.7850     2.4440     1.0810 o          1 4D2      -0.705500
     24 O27         -5.0780    -2.5620     0.1240 os         1 4D2      -0.370100
     25 O28         -4.4020    -1.0290     1.6770 os         1 4D2      -0.316100
     26 H1           7.0240    -2.4730     0.4020 ha         1 4D2       0.117000
     27 H2           5.2630    -2.1480    -1.3430 ha         1 4D2       0.134000
     28 H5           6.6840    -1.4570     2.6400 h4         1 4D2       0.011100
     29 H3          -2.4280    -0.6110    -3.0480 ha         1 4D2       0.094000
     30 H4          -4.0430    -2.4020    -2.4730 ha         1 4D2       0.109000
     31 H6           3.0720     0.1370     1.5560 h4         1 4D2       0.040100
     32 H171        -1.2980     1.3510    -2.5940 hc         1 4D2       0.053200
     33 H172        -1.7960     2.3320    -1.2250 hc         1 4D2       0.053200
     34 H23          1.5630    -0.7830     0.4070 hn         1 4D2       0.321500
     35 H141        -6.1360    -2.1280     1.8390 h2         1 4D2       0.040700
     36 H142        -4.6140    -3.0440     2.0780 h2         1 4D2       0.040700
     37 H151         3.6480     4.1440    -0.1610 hc         1 4D2       0.030700
     38 H152         2.9250     4.0140    -1.7650 hc         1 4D2       0.030700
     39 H153         2.0330     4.7880    -0.4550 hc         1 4D2       0.030700
     40 H20          2.8250     1.8500    -0.5670 hc         1 4D2       0.037700
     41 H161         1.0770     3.2470     1.5030 hc         1 4D2       0.030700
     42 H162         1.5620     1.5610     1.5250 hc         1 4D2       0.030700
     43 H163         2.7770     2.8160     1.7380 hc         1 4D2       0.030700
     44 H21         -0.2100     1.0640     0.2420 hc         1 4D2       0.095700
     45 H181         0.1710     3.2810    -0.9200 hc         1 4D2       0.036700
     46 H182         1.0520     2.4480    -2.1790 hc         1 4D2       0.036700
     47 H191        -0.1710    -0.9420    -1.2800 h1         1 4D2       0.055700
     48 H192         0.8670    -0.0540    -2.3780 h1         1 4D2       0.055700
     49 C13         -2.5110     1.2540     1.2950 c          1 4D2       0.722600
     50 C15          2.7120     3.9650    -0.6950 c3         1 4D2      -0.088100
     51 C16          1.8650     2.5550     1.1960 c3         1 4D2      -0.088100
@<TRIPOS>BOND
     1     1     2 ar  
     2     1     5 ar  
     3     1    26 1   
     4     2     7 ar  
     5     2    27 1   
     6     3     4 ar  
     7     3     9 ar  
     8     3    29 1   
     9     4    10 ar  
    10     4    30 1   
    11     5    19 ar  
    12     5    28 1   
    13     6     7 ar  
    14     6    19 ar  
    15     6    31 1   
    16     7    12 1   
    17     8     9 ar  
    18     8    11 ar  
    19     8    49 1   
    20     9    14 1   
    21    10    11 ar  
    22    10    24 1   
    23    11    25 1   
    24    12    20 1   
    25    12    22 2   
    26    13    24 1   
    27    13    25 1   
    28    13    35 1   
    29    13    36 1   
    30    14    18 1   
    31    14    32 1   
    32    14    33 1   
    33    15    17 1   
    34    15    18 1   
    35    15    45 1   
    36    15    46 1   
    37    16    18 1   
    38    16    20 1   
    39    16    47 1   
    40    16    48 1   
    41    17    40 1   
    42    17    50 1   
    43    17    51 1   
    44    18    44 1   
    45    20    34 1   
    46    21    49 1   
    47    23    49 1   
    48    37    50 1   
    49    38    50 1   
    50    39    50 1   
    51    41    51 1   
    52    42    51 1   
    53    43    51 1   
@<TRIPOS>SUBSTRUCTURE
     1 4D2         1 TEMP              0 ****  ****    0 ROOT
