@<TRIPOS>MOLECULE
4D3
   23    23     1     0     0
SMALL
abcg2


@<TRIPOS>ATOM
      1 CAM          4.9900    -1.2920    -0.0290 c3         1 4D3       0.151900
      2 OAK          3.5640    -1.3830    -0.0400 os         1 4D3      -0.436100
      3 CAJ          2.8800    -0.2600     0.0820 c          1 4D3       0.589300
      4 OAL          3.3760     0.8340     0.2010 o          1 4D3      -0.468000
      5 CAI          1.4300    -0.5310     0.0540 ce         1 4D3      -0.232200
      6 CAH          0.4970     0.4280     0.1460 cf         1 4D3       0.141100
      7 CAN          0.8570     1.8080     0.3140 ch         1 4D3       0.272700
      8 NAO          1.0210     2.9390     0.4500 n1         1 4D3      -0.418000
      9 CAE         -0.9510     0.1630     0.0830 ca         1 4D3      -0.092800
     10 CAD         -1.4360    -0.9580    -0.5970 ca         1 4D3      -0.056500
     11 CAC         -2.7900    -1.2320    -0.6400 ca         1 4D3      -0.156000
     12 CAB         -3.6620    -0.3700     0.0010 ca         1 4D3       0.192000
     13 FAG         -4.9730    -0.6290    -0.0410 f          1 4D3      -0.170000
     14 CAA         -3.2220     0.7530     0.6730 ca         1 4D3      -0.156000
     15 CAF         -1.8630     1.0160     0.7050 ca         1 4D3      -0.056500
     16 HAM          5.3540    -2.3090    -0.1370 h1         1 4D3       0.052033
     17 HAO          5.3530    -0.6850    -0.8580 h1         1 4D3       0.052033
     18 HAN          5.3530    -0.8740     0.9100 h1         1 4D3       0.052033
     19 HAI          1.1210    -1.5630    -0.0380 ha         1 4D3       0.209000
     20 HAD         -0.7580    -1.6160    -1.1240 ha         1 4D3       0.126500
     21 HAC         -3.1630    -2.0960    -1.1740 ha         1 4D3       0.139000
     22 HAA         -3.9240     1.4150     1.1620 ha         1 4D3       0.139000
     23 HAF         -1.5240     1.8960     1.2350 ha         1 4D3       0.126500
@<TRIPOS>BOND
     1     1     2 1   
     2     1    16 1   
     3     1    17 1   
     4     1    18 1   
     5     2     3 1   
     6     3     4 2   
     7     3     5 1   
     8     5     6 2   
     9     5    19 1   
    10     6     7 1   
    11     6     9 1   
    12     7     8 3   
    13     9    10 ar  
    14     9    15 ar  
    15    10    11 ar  
    16    10    20 1   
    17    11    12 ar  
    18    11    21 1   
    19    12    13 1   
    20    12    14 ar  
    21    14    15 ar  
    22    14    22 1   
    23    15    23 1   
@<TRIPOS>SUBSTRUCTURE
     1 4D3         1 TEMP              0 ****  ****    0 ROOT
