@<TRIPOS>MOLECULE
4D3
   23    23     1     0     0
SMALL
No Charge or Current Charge


@<TRIPOS>ATOM
      1 CAM          5.0360    -1.4190     0.0080 c3         1 4D3       0.151900
      2 OAK          3.5950    -1.4220     0.0180 os         1 4D3      -0.436100
      3 CAJ          2.9480    -0.2170     0.0750 c          1 4D3       0.589300
      4 OAL          3.5160     0.8650     0.1180 o          1 4D3      -0.468000
      5 CAI          1.4720    -0.4220     0.0750 ce         1 4D3      -0.232200
      6 CAH          0.4850     0.5260     0.1310 cf         1 4D3       0.141100
      7 CAN          0.7730     1.9360     0.1750 ch         1 4D3       0.272700
      8 NAO          0.9620     3.0890     0.2130 n1         1 4D3      -0.418000
      9 CAE         -0.9720     0.2170     0.0950 ca         1 4D3      -0.092800
     10 CAD         -1.4380    -0.8850    -0.6600 ca         1 4D3      -0.056500
     11 CAC         -2.8080    -1.1970    -0.7050 ca         1 4D3      -0.156000
     12 CAB         -3.7290    -0.4160     0.0050 ca         1 4D3       0.192000
     13 FAG         -5.0440    -0.7180    -0.0390 f          1 4D3      -0.170000
     14 CAA         -3.2880     0.6780     0.7610 ca         1 4D3      -0.156000
     15 CAF         -1.9190     0.9960     0.8080 ca         1 4D3      -0.056500
     16 HAM          5.4200    -2.4460    -0.0390 h1         1 4D3       0.052033
     17 HAO          5.4210    -0.8720    -0.8620 h1         1 4D3       0.052033
     18 HAN          5.4330    -0.9500     0.9180 h1         1 4D3       0.052033
     19 HAI          1.1790    -1.4670     0.0420 ha         1 4D3       0.209000
     20 HAD         -0.7430    -1.4960    -1.2320 ha         1 4D3       0.126500
     21 HAC         -3.1570    -2.0430    -1.2920 ha         1 4D3       0.139000
     22 HAA         -4.0070     1.2770     1.3130 ha         1 4D3       0.139000
     23 HAF         -1.6040     1.8410     1.4160 ha         1 4D3       0.126500
@<TRIPOS>BOND
     1     1     2 1   
     2     1    16 1   
     3     1    17 1   
     4     1    18 1   
     5     2     3 1   
     6     3     4 2   
     7     3     5 1   
     8     5     6 2   
     9     5    19 1   
    10     6     7 1   
    11     6     9 1   
    12     7     8 3   
    13     9    10 ar  
    14     9    15 ar  
    15    10    11 ar  
    16    10    20 1   
    17    11    12 ar  
    18    11    21 1   
    19    12    13 1   
    20    12    14 ar  
    21    14    15 ar  
    22    14    22 1   
    23    15    23 1   
@<TRIPOS>SUBSTRUCTURE
     1 4D3         1 TEMP              0 ****  ****    0 ROOT
