@<TRIPOS>MOLECULE
4D4
   26    25     1     0     0
SMALL
bcc


@<TRIPOS>ATOM
      1 C          -68.5440   127.4910   158.2010 c          1 4D4       0.915600
      2 O          -69.4670   127.3970   157.3700 o          1 4D4      -0.835300
      3 CA         -67.3960   126.4450   158.1240 c3         1 4D4       0.019500
      4 N          -67.6000   125.3540   157.1830 n8         1 4D4      -0.891800
      5 CB         -66.0750   127.1650   157.8500 c3         1 4D4       0.175100
      6 OB         -66.2050   127.8200   156.5980 oh         1 4D4      -0.579800
      7 CG         -64.8800   126.2160   157.8750 c3         1 4D4      -0.125400
      8 CD         -63.5470   126.9400   157.7640 c3         1 4D4       0.218800
      9 NE         -62.4560   125.9950   157.8100 nu         1 4D4      -0.912200
     10 CZ         -61.1520   126.3910   157.7900 c2         1 4D4       0.805100
     11 NH2        -60.7200   127.5790   157.5610 n2         1 4D4      -0.932100
     12 NH1        -60.2470   125.3640   157.9710 nv         1 4D4      -0.910800
     13 O1         -68.4370   128.3460   159.1050 o          1 4D4      -0.835300
     14 H1         -67.2960   126.0020   159.1210 h1         1 4D4       0.033700
     15 H2         -68.3790   124.7940   157.5070 hn         1 4D4       0.333800
     16 H3         -67.9220   125.7470   156.3070 hn         1 4D4       0.333800
     17 H5         -65.9400   127.9020   158.6520 h1         1 4D4       0.042700
     18 H6         -65.5100   128.4780   156.5120 ho         1 4D4       0.372000
     19 H7         -64.9750   125.4830   157.0720 hc         1 4D4       0.054700
     20 H8         -64.9020   125.6610   158.8190 hc         1 4D4       0.054700
     21 H9         -63.4590   127.6790   158.5710 h1         1 4D4       0.031700
     22 H10        -63.5030   127.4950   156.8210 h1         1 4D4       0.031700
     23 H11        -62.6700   125.0630   158.1250 hn         1 4D4       0.423800
     24 H12        -61.4770   128.2230   157.3680 hn         1 4D4       0.387400
     25 H14        -60.5240   124.6230   158.5960 hn         1 4D4       0.393300
     26 H15        -59.3170   125.6940   158.1730 hn         1 4D4       0.393300
@<TRIPOS>BOND
     1     1     2 1   
     2     1     3 1   
     3     1    13 1   
     4     3     4 1   
     5     3     5 1   
     6     3    14 1   
     7     4    15 1   
     8     4    16 1   
     9     5     6 1   
    10     5     7 1   
    11     5    17 1   
    12     6    18 1   
    13     7     8 1   
    14     7    19 1   
    15     7    20 1   
    16     8     9 1   
    17     8    21 1   
    18     8    22 1   
    19     9    10 1   
    20     9    23 1   
    21    10    11 2   
    22    10    12 1   
    23    11    24 1   
    24    12    25 1   
    25    12    26 1   
@<TRIPOS>SUBSTRUCTURE
     1 4D4         1 TEMP              0 ****  ****    0 ROOT
