@<TRIPOS>MOLECULE
4D5
   71    75     1     0     0
SMALL
No Charge or Current Charge


@<TRIPOS>ATOM
      1 C13          6.0820     0.9360    -0.6930 ca         1 4D5       0.005000
      2 C17          8.4980     1.4540    -1.3760 c          1 4D5       0.646100
      3 C15          5.1540    -1.0620     0.3690 ca         1 4D5      -0.066500
      4 C20         -1.8610     0.0680     1.1330 c          1 4D5       0.597300
      5 C21         -2.6200     1.0300     0.2920 ce         1 4D5      -0.272200
      6 C23         -3.0410     2.2610     0.7160 cf         1 4D5      -0.090200
      7 C24         -3.7920     3.3080    -0.0240 ca         1 4D5      -0.026800
      8 C11          3.6990     0.8030    -0.1600 ca         1 4D5      -0.066500
      9 C12          4.7960     1.5050    -0.6890 ca         1 4D5      -0.153000
     10 C27         -4.3090     4.4610     0.6320 ca         1 4D5       0.011800
     11 C33         -3.4330     5.6570     2.5800 cc         1 4D5       0.391400
     12 C1           0.6660    -1.9450     1.3240 cc         1 4D5       0.396800
     13 N2           1.4100    -2.3940     2.3290 nd         1 4D5      -0.646000
     14 C3           2.6840    -1.9200     2.0950 cd         1 4D5       0.347000
     15 C4           2.7140    -1.2040     0.9210 cc         1 4D5      -0.132000
     16 N5           1.4220    -1.1920     0.4530 na         1 4D5      -0.277500
     17 C6          -0.8170    -2.2220     1.1450 c3         1 4D5       0.107400
     18 N7          -1.5400    -1.1080     0.5010 ns         1 4D5      -0.515900
     19 C8          -1.0660    -3.5430     0.3780 c3         1 4D5      -0.176400
     20 C10          3.8700    -0.4830     0.3860 ca         1 4D5      -0.039000
     21 C14          6.2510    -0.3600    -0.1610 ca         1 4D5      -0.153000
     22 N16          7.1440     1.7020    -1.2440 ns         1 4D5      -0.139000
     23 O18          9.0940     0.4500    -1.0080 o          1 4D5      -0.518000
     24 O19          9.0870     2.5270    -1.9870 os         1 4D5      -0.459100
     25 O22         -1.5400     0.2980     2.2880 o          1 4D5      -0.567100
     26 C25         -2.5130    -4.0670     0.3850 c          1 4D5       0.604100
     27 C26         10.5080     2.4750    -2.2200 c3         1 4D5       0.171900
     28 C28         -5.0020     5.4420    -0.1070 ca         1 4D5      -0.097000
     29 C29         -5.1920     5.2930    -1.4890 ca         1 4D5      -0.087000
     30 C30         -4.6870     4.1620    -2.1410 ca         1 4D5       0.125000
     31 C31         -3.9940     3.1790    -1.4180 ca         1 4D5      -0.090000
     32 N32         -4.1590     4.6560     2.0060 na         1 4D5      -0.003500
     33 N34         -4.8800     3.9540     2.9040 nc         1 4D5      -0.184800
     34 N35         -4.5390     4.4980     4.0460 nd         1 4D5      -0.032000
     35 N36         -3.6560     5.5520     3.8780 nd         1 4D5      -0.376000
     36 Cl3         -4.9190     3.9740    -3.8740 cl         1 4D5      -0.179000
     37 O38         -3.3640    -3.5640     1.1060 o          1 4D5      -0.590100
     38 N39         -2.8510    -5.1250    -0.4940 n          1 4D5      -0.415800
     39 C40         -4.2600    -5.6420    -0.5020 c6         1 4D5       0.059500
     40 C41         -4.5920    -6.6170    -1.6600 c6         1 4D5       0.137100
     41 O42         -3.5680    -7.6190    -1.7820 os         1 4D5      -0.440000
     42 C43         -2.2890    -7.0490    -2.1090 c6         1 4D5       0.137100
     43 C44         -1.8110    -6.0920    -0.9860 c6         1 4D5       0.059500
     44 H53          5.3060    -2.0690     0.7500 ha         1 4D5       0.119500
     45 H55         -2.8430     0.6970    -0.7170 ha         1 4D5       0.178000
     46 H56         -2.7840     2.5220     1.7450 ha         1 4D5       0.216000
     47 H50          2.7160     1.2670    -0.1650 ha         1 4D5       0.119500
     48 H51          4.6410     2.5020    -1.0990 ha         1 4D5       0.132500
     49 H63         -2.8140     6.3670     2.0460 h5         1 4D5       0.077100
     50 H45          1.0740    -0.7340    -0.3790 hn         1 4D5       0.354000
     51 H46         -1.2270    -2.3450     2.1570 h1         1 4D5       0.123700
     52 H47         -1.8620    -1.2200    -0.4530 hn         1 4D5       0.316500
     53 H48         -0.7160    -3.4770    -0.6580 hc         1 4D5       0.074700
     54 H49         -0.4350    -4.3480     0.7720 hc         1 4D5       0.074700
     55 H52          7.2220    -0.8460    -0.1550 ha         1 4D5       0.132500
     56 H54          6.8600     2.6000    -1.6110 hn         1 4D5       0.166000
     57 H58         11.0560     2.3740    -1.2740 h1         1 4D5       0.052033
     58 H59         10.7690     1.6250    -2.8650 h1         1 4D5       0.052033
     59 H57         10.8480     3.3930    -2.7140 h1         1 4D5       0.052033
     60 H60         -5.4040     6.3210     0.3940 ha         1 4D5       0.136000
     61 H61         -5.7290     6.0520    -2.0530 ha         1 4D5       0.142000
     62 H62         -3.6070     2.3230    -1.9600 ha         1 4D5       0.136000
     63 H64         -4.4480    -6.1560     0.4510 h1         1 4D5       0.064450
     64 H65         -4.9590    -4.7950    -0.5530 h1         1 4D5       0.064450
     65 H66         -5.5580    -7.1060    -1.4710 h1         1 4D5       0.053450
     66 H67         -4.6710    -6.0620    -2.6060 h1         1 4D5       0.053450
     67 H69         -1.5570    -7.8570    -2.2480 h1         1 4D5       0.053450
     68 H68         -2.3710    -6.5000    -3.0580 h1         1 4D5       0.053450
     69 H71         -0.9350    -5.5510    -1.3660 h1         1 4D5       0.064450
     70 H70         -1.4700    -6.6970    -0.1340 h1         1 4D5       0.064450
     71 Cl9          3.9860    -2.1850     3.2140 cl         1 4D5      -0.133000
@<TRIPOS>BOND
     1     1     9 ar  
     2     1    21 ar  
     3     1    22 1   
     4     2    22 1   
     5     2    23 2   
     6     2    24 1   
     7     3    20 ar  
     8     3    21 ar  
     9     3    44 1   
    10     4     5 1   
    11     4    18 1   
    12     4    25 2   
    13     5     6 2   
    14     5    45 1   
    15     6     7 1   
    16     6    46 1   
    17     7    10 ar  
    18     7    31 ar  
    19     8     9 ar  
    20     8    20 ar  
    21     8    47 1   
    22     9    48 1   
    23    10    28 ar  
    24    10    32 1   
    25    11    32 1   
    26    11    35 2   
    27    11    49 1   
    28    12    13 2   
    29    12    16 1   
    30    12    17 1   
    31    13    14 1   
    32    14    15 2   
    33    14    71 1   
    34    15    16 1   
    35    15    20 1   
    36    16    50 1   
    37    17    18 1   
    38    17    19 1   
    39    17    51 1   
    40    18    52 1   
    41    19    26 1   
    42    19    53 1   
    43    19    54 1   
    44    21    55 1   
    45    22    56 1   
    46    24    27 1   
    47    26    37 2   
    48    26    38 1   
    49    27    57 1   
    50    27    58 1   
    51    27    59 1   
    52    28    29 ar  
    53    28    60 1   
    54    29    30 ar  
    55    29    61 1   
    56    30    31 ar  
    57    30    36 1   
    58    31    62 1   
    59    32    33 1   
    60    33    34 2   
    61    34    35 1   
    62    38    39 1   
    63    38    43 1   
    64    39    40 1   
    65    39    63 1   
    66    39    64 1   
    67    40    41 1   
    68    40    65 1   
    69    40    66 1   
    70    41    42 1   
    71    42    43 1   
    72    42    67 1   
    73    42    68 1   
    74    43    69 1   
    75    43    70 1   
@<TRIPOS>SUBSTRUCTURE
     1 4D5         1 TEMP              0 ****  ****    0 ROOT
