@<TRIPOS>MOLECULE
4D5
   71    75     1     0     0
SMALL
bcc


@<TRIPOS>ATOM
      1 C13          5.7400     0.9400    -0.7890 ca         1 4D5       0.097600
      2 C17          8.0320     1.5430    -1.5100 c          1 4D5       0.762100
      3 C15          4.9930    -0.9570     0.4940 ca         1 4D5      -0.084500
      4 C20         -1.7280    -0.0100     1.1060 c          1 4D5       0.664300
      5 C21         -2.4420     0.9500     0.2320 ce         1 4D5      -0.222200
      6 C23         -2.6680     2.1970     0.6460 cf         1 4D5      -0.040200
      7 C24         -3.3250     3.2330    -0.1510 ca         1 4D5      -0.026800
      8 C11          3.4080     0.6880    -0.2020 ca         1 4D5      -0.084500
      9 C12          4.4190     1.3940    -0.8230 ca         1 4D5      -0.171000
     10 C27         -4.0000     4.2980     0.4510 ca         1 4D5       0.011800
     11 C33         -3.7620     5.3330     2.7030 cc         1 4D5       0.391400
     12 C1           0.5630    -1.9930     1.5120 cc         1 4D5       0.396800
     13 N2           1.2740    -2.4180     2.5270 nd         1 4D5      -0.646000
     14 C3           2.5250    -1.9640     2.2940 cd         1 4D5       0.412300
     15 C4           2.6040    -1.2430     1.1290 cc         1 4D5      -0.146600
     16 N5           1.3180    -1.2860     0.6530 na         1 4D5      -0.277900
     17 C6          -0.8890    -2.2920     1.2870 c3         1 4D5       0.107400
     18 N7          -1.5160    -1.2190     0.5500 ns         1 4D5      -0.582900
     19 C8          -1.0470    -3.6100     0.5350 c3         1 4D5      -0.176400
     20 C10          3.6740    -0.5060     0.4730 ca         1 4D5      -0.039000
     21 C14          6.0170    -0.2530    -0.1200 ca         1 4D5      -0.171000
     22 N16          6.6870     1.7230    -1.4440 ns         1 4D5      -0.465100
     23 O18          8.6590     0.6410    -1.0010 o          1 4D5      -0.567000
     24 O19          8.5760     2.5220    -2.2290 os         1 4D5      -0.435900
     25 O22         -1.3450     0.2660     2.2340 o          1 4D5      -0.567100
     26 C25         -2.4840    -4.1090     0.5480 c          1 4D5       0.671100
     27 C26          9.9900     2.4870    -2.4050 c3         1 4D5       0.148700
     28 C28         -4.5830     5.3090    -0.2950 ca         1 4D5      -0.115000
     29 C29         -4.5020     5.2850    -1.6760 ca         1 4D5      -0.105000
     30 C30         -3.8450     4.2260    -2.2860 ca         1 4D5       0.033400
     31 C31         -3.2630     3.2150    -1.5450 ca         1 4D5      -0.108000
     32 N32         -4.1140     4.3570     1.8600 na         1 4D5      -0.003500
     33 N34         -4.6790     3.3820     2.5710 nc         1 4D5      -0.184800
     34 N35         -4.6560     3.7590     3.7850 nd         1 4D5      -0.032000
     35 N36         -4.0970     4.9650     3.9100 nd         1 4D5      -0.376000
     36 CL3         -3.7340     4.1770    -4.0080 cl         1 4D5      -0.087400
     37 O38         -3.3440    -3.5170     1.1860 o          1 4D5      -0.590100
     38 N39         -2.7510    -5.2230    -0.1640 n          1 4D5      -0.482800
     39 C40         -4.0890    -5.7890    -0.1930 c6         1 4D5       0.059500
     40 C41         -4.4790    -6.1010    -1.6270 c6         1 4D5       0.113900
     41 O42         -3.5360    -6.9430    -2.2520 os         1 4D5      -0.393600
     42 C43         -2.2570    -6.3520    -2.2600 c6         1 4D5       0.113900
     43 C44         -1.7720    -6.0460    -0.8530 c6         1 4D5       0.059500
     44 H53          5.2400    -1.8900     0.9820 ha         1 4D5       0.137500
     45 H55         -2.7830     0.6040    -0.7370 ha         1 4D5       0.128000
     46 H56         -2.3290     2.4740     1.6380 ha         1 4D5       0.166000
     47 H50          2.4040     1.0910    -0.2360 ha         1 4D5       0.137500
     48 H51          4.1800     2.3200    -1.3310 ha         1 4D5       0.150500
     49 H63         -3.2750     6.2480     2.4080 h5         1 4D5       0.077100
     50 H45          1.0040    -0.8950    -0.2230 hn         1 4D5       0.303700
     51 H46         -1.3510    -2.3890     2.2720 h1         1 4D5       0.123700
     52 H47         -1.8970    -1.4170    -0.3610 hn         1 4D5       0.316500
     53 H48         -0.6780    -3.4990    -0.4880 hc         1 4D5       0.074700
     54 H49         -0.4050    -4.3570     1.0080 hc         1 4D5       0.074700
     55 H52          7.0170    -0.6500    -0.0760 ha         1 4D5       0.150500
     56 H54          6.3250     2.5420    -1.9130 hn         1 4D5       0.332500
     57 H58         10.5150     2.5770    -1.4550 h1         1 4D5       0.052033
     58 H59         10.3090     1.5760    -2.9100 h1         1 4D5       0.052033
     59 H57         10.2300     3.3440    -3.0290 h1         1 4D5       0.052033
     60 H60         -5.1120     6.1130     0.1980 ha         1 4D5       0.154000
     61 H61         -4.9500     6.0740    -2.2620 ha         1 4D5       0.160000
     62 H62         -2.7260     2.4220    -2.0480 ha         1 4D5       0.154000
     63 H64         -4.1120    -6.7000     0.4130 h1         1 4D5       0.064450
     64 H65         -4.7980    -5.0850     0.2360 h1         1 4D5       0.064450
     65 H66         -5.4410    -6.6170    -1.6430 h1         1 4D5       0.053450
     66 H67         -4.5870    -5.1620    -2.1860 h1         1 4D5       0.053450
     67 H69         -1.5730    -7.0530    -2.7380 h1         1 4D5       0.053450
     68 H68         -2.2630    -5.4250    -2.8500 h1         1 4D5       0.053450
     69 H71         -0.8070    -5.5500    -0.9140 h1         1 4D5       0.064450
     70 H70         -1.6250    -6.9780    -0.2960 h1         1 4D5       0.064450
     71 CL9          3.7840    -2.2470     3.4210 cl         1 4D5      -0.133000
@<TRIPOS>BOND
     1     1     9 ar  
     2     1    21 ar  
     3     1    22 1   
     4     2    22 1   
     5     2    23 2   
     6     2    24 1   
     7     3    20 ar  
     8     3    21 ar  
     9     3    44 1   
    10     4     5 1   
    11     4    18 1   
    12     4    25 2   
    13     5     6 2   
    14     5    45 1   
    15     6     7 1   
    16     6    46 1   
    17     7    10 ar  
    18     7    31 ar  
    19     8     9 ar  
    20     8    20 ar  
    21     8    47 1   
    22     9    48 1   
    23    10    28 ar  
    24    10    32 1   
    25    11    32 1   
    26    11    35 2   
    27    11    49 1   
    28    12    13 2   
    29    12    16 1   
    30    12    17 1   
    31    13    14 1   
    32    14    15 2   
    33    14    71 1   
    34    15    16 1   
    35    15    20 1   
    36    16    50 1   
    37    17    18 1   
    38    17    19 1   
    39    17    51 1   
    40    18    52 1   
    41    19    26 1   
    42    19    53 1   
    43    19    54 1   
    44    21    55 1   
    45    22    56 1   
    46    24    27 1   
    47    26    37 2   
    48    26    38 1   
    49    27    57 1   
    50    27    58 1   
    51    27    59 1   
    52    28    29 ar  
    53    28    60 1   
    54    29    30 ar  
    55    29    61 1   
    56    30    31 ar  
    57    30    36 1   
    58    31    62 1   
    59    32    33 1   
    60    33    34 2   
    61    34    35 1   
    62    38    39 1   
    63    38    43 1   
    64    39    40 1   
    65    39    63 1   
    66    39    64 1   
    67    40    41 1   
    68    40    65 1   
    69    40    66 1   
    70    41    42 1   
    71    42    43 1   
    72    42    67 1   
    73    42    68 1   
    74    43    69 1   
    75    43    70 1   
@<TRIPOS>SUBSTRUCTURE
     1 4D5         1 TEMP              0 ****  ****    0 ROOT
