@<TRIPOS>MOLECULE
4D7
   37    39     1     0     0
SMALL
No Charge or Current Charge


@<TRIPOS>ATOM
      1 C1           4.2640     1.9680     1.5360 ca         1 4D7      -0.114000
      2 C2           4.0250     2.6800     0.3380 ca         1 4D7      -0.145000
      3 C3           3.2450     2.1050    -0.6900 ca         1 4D7      -0.060000
      4 C4           3.7260     0.6770     1.7130 ca         1 4D7      -0.112000
      5 N5           2.3370    -1.0730     0.6010 na         1 4D7      -0.310600
      6 C6           2.9590     0.1420     0.6700 ca         1 4D7      -0.087200
      7 C7           2.7180     0.8190    -0.4920 ca         1 4D7       0.079400
      8 N8           1.9350     0.0790    -1.3600 nc         1 4D7      -0.613100
      9 C9           1.7160    -1.0480    -0.6530 cd         1 4D7       0.454800
     10 C10          0.8990    -2.1890    -1.2010 c3         1 4D7      -0.111700
     11 C11         -0.4580    -2.4000    -0.4800 c3         1 4D7      -0.029300
     12 C12         -1.2120    -3.6450    -1.0440 c          1 4D7       0.721000
     13 O13         -1.2800    -4.6440    -0.3430 o          1 4D7      -0.714000
     14 O14         -1.7720    -3.5440    -2.1290 o          1 4D7      -0.714000
     15 N15         -1.3150    -1.1940    -0.5690 ns         1 4D7      -0.459900
     16 C16         -1.3750    -0.1830     0.3650 c          1 4D7       0.642700
     17 C17         -2.2580     0.9370    -0.0340 cc         1 4D7      -0.209600
     18 O18         -0.7550    -0.2310     1.4170 o          1 4D7      -0.629100
     19 C19         -2.4980     2.0780     0.6880 cd         1 4D7       0.192300
     20 O20         -3.3660     2.9210     0.0310 os         1 4D7      -0.261000
     21 C21         -3.6660     2.2670    -1.1410 cd         1 4D7       0.086900
     22 C22         -3.0190     1.0660    -1.2230 cc         1 4D7      -0.154000
     23 C23         -1.9700     2.5230     2.0250 c3         1 4D7      -0.122400
     24 H1           4.8650     2.4170     2.3240 ha         1 4D7       0.099000
     25 H2           4.4420     3.6760     0.2070 ha         1 4D7       0.100000
     26 H3           3.0550     2.6450    -1.6140 ha         1 4D7       0.118000
     27 H4           3.9010     0.1170     2.6290 ha         1 4D7       0.109000
     28 H10          0.7150    -2.0310    -2.2700 hc         1 4D7       0.077700
     29 H10A         1.4850    -3.1120    -1.1280 hc         1 4D7       0.077700
     30 H11         -0.2590    -2.6050     0.5800 h1         1 4D7       0.052700
     31 HN15        -1.8890    -1.0790    -1.3950 hn         1 4D7       0.313500
     32 H21         -4.3440     2.7540    -1.8300 h4         1 4D7       0.039100
     33 H22         -3.0800     0.3570    -2.0420 ha         1 4D7       0.150000
     34 H23         -0.8760     2.5920     2.0100 hc         1 4D7       0.057700
     35 H23A        -2.3640     3.5080     2.3010 hc         1 4D7       0.057700
     36 H23B        -2.2550     1.8160     2.8130 hc         1 4D7       0.057700
     37 HN5          2.2900    -1.8080     1.2940 hn         1 4D7       0.360000
@<TRIPOS>BOND
     1     1     2 ar  
     2     1     4 ar  
     3     1    24 1   
     4     2     3 ar  
     5     2    25 1   
     6     3     7 ar  
     7     3    26 1   
     8     4     6 ar  
     9     4    27 1   
    10     5     6 1   
    11     5     9 1   
    12     5    37 1   
    13     6     7 ar  
    14     7     8 1   
    15     8     9 2   
    16     9    10 1   
    17    10    11 1   
    18    10    28 1   
    19    10    29 1   
    20    11    12 1   
    21    11    15 1   
    22    11    30 1   
    23    12    13 1   
    24    12    14 1   
    25    15    16 1   
    26    15    31 1   
    27    16    17 1   
    28    16    18 2   
    29    17    19 2   
    30    17    22 1   
    31    19    20 1   
    32    19    23 1   
    33    20    21 1   
    34    21    22 2   
    35    21    32 1   
    36    22    33 1   
    37    23    34 1   
    38    23    35 1   
    39    23    36 1   
@<TRIPOS>SUBSTRUCTURE
     1 4D7         1 TEMP              0 ****  ****    0 ROOT
