@<TRIPOS>MOLECULE
4D7
   37    39     1     0     0
SMALL
bcc


@<TRIPOS>ATOM
      1 C1           4.8400     1.8910     0.5700 ca         1 4D7      -0.132000
      2 C2           4.3070     2.5170    -0.5670 ca         1 4D7      -0.163000
      3 C3           3.3100     1.9190    -1.3190 ca         1 4D7      -0.078000
      4 C4           4.3910     0.6500     0.9910 ca         1 4D7      -0.130000
      5 N5           2.7120    -1.1260     0.3410 na         1 4D7      -0.260300
      6 C6           3.3870     0.0600     0.2320 ca         1 4D7      -0.087200
      7 C7           2.8440     0.6700    -0.9120 ca         1 4D7       0.079400
      8 N8           1.8780    -0.1400    -1.4620 nc         1 4D7      -0.613100
      9 C9           1.8280    -1.1930    -0.6890 cd         1 4D7       0.454800
     10 C10          0.8610    -2.3130    -0.8330 c3         1 4D7      -0.111700
     11 C11         -0.3650    -2.1260     0.0750 c3         1 4D7      -0.029300
     12 C12         -1.3630    -3.2900    -0.1630 c          1 4D7       0.931600
     13 O13         -0.9480    -4.4060     0.2070 o          1 4D7      -0.819300
     14 O14         -2.4440    -3.0220    -0.7070 o          1 4D7      -0.819300
     15 N15         -0.9200    -0.8190    -0.1620 ns         1 4D7      -0.526900
     16 C16         -1.7670    -0.2200     0.6870 c          1 4D7       0.709700
     17 C17         -2.2040     1.1280     0.2770 cc         1 4D7      -0.274900
     18 O18         -2.1260    -0.7290     1.7440 o          1 4D7      -0.629100
     19 C19         -3.2820     1.8030     0.7720 cd         1 4D7       0.302000
     20 O20         -3.3580     3.0100     0.1850 os         1 4D7      -0.349800
     21 C21         -2.3300     3.1290    -0.6860 cd         1 4D7       0.196600
     22 C22         -1.5870     2.0050    -0.6780 cc         1 4D7      -0.237300
     23 C23         -4.3210     1.4760     1.7760 c3         1 4D7      -0.122400
     24 H1           5.6180     2.3910     1.1320 ha         1 4D7       0.117000
     25 H2           4.6840     3.4890    -0.8570 ha         1 4D7       0.118000
     26 H3           2.9010     2.4060    -2.1950 ha         1 4D7       0.136000
     27 H4           4.8010     0.1680     1.8680 ha         1 4D7       0.127000
     28 H10          0.5470    -2.3610    -1.8780 hc         1 4D7       0.077700
     29 H10A         1.3300    -3.2660    -0.5880 hc         1 4D7       0.077700
     30 H11         -0.0300    -2.1750     1.1160 h1         1 4D7       0.052700
     31 HN15        -0.7540    -0.3950    -1.0600 hn         1 4D7       0.313500
     32 H21         -2.2560     4.0580    -1.2260 h4         1 4D7       0.039100
     33 H22         -0.6940     1.8310    -1.2600 ha         1 4D7       0.168000
     34 H23         -4.0500     1.8520     2.7650 hc         1 4D7       0.057700
     35 H23A        -5.2780     1.9190     1.5020 hc         1 4D7       0.057700
     36 H23B        -4.4480     0.4010     1.8590 hc         1 4D7       0.057700
     37 HN5          2.8510    -1.8330     1.0460 hn         1 4D7       0.309700
@<TRIPOS>BOND
     1     1     2 ar  
     2     1     4 ar  
     3     1    24 1   
     4     2     3 ar  
     5     2    25 1   
     6     3     7 ar  
     7     3    26 1   
     8     4     6 ar  
     9     4    27 1   
    10     5     6 1   
    11     5     9 1   
    12     5    37 1   
    13     6     7 ar  
    14     7     8 1   
    15     8     9 2   
    16     9    10 1   
    17    10    11 1   
    18    10    28 1   
    19    10    29 1   
    20    11    12 1   
    21    11    15 1   
    22    11    30 1   
    23    12    13 1   
    24    12    14 1   
    25    15    16 1   
    26    15    31 1   
    27    16    17 1   
    28    16    18 2   
    29    17    19 2   
    30    17    22 1   
    31    19    20 1   
    32    19    23 1   
    33    20    21 1   
    34    21    22 2   
    35    21    32 1   
    36    22    33 1   
    37    23    34 1   
    38    23    35 1   
    39    23    36 1   
@<TRIPOS>SUBSTRUCTURE
     1 4D7         1 TEMP              0 ****  ****    0 ROOT
