@<TRIPOS>MOLECULE
4D8
   77    80     1     0     0
SMALL
No Charge or Current Charge


@<TRIPOS>ATOM
      1 O3           0.0000     0.0000     0.0000 oh         1 4D8      -0.641000
      2 OC1          0.0000     0.0000     0.0000 o          1 4D8      -0.729500
      3 OC2          0.0000     0.0000     0.0000 o          1 4D8      -0.729500
      4 C13          0.0000     0.0000     0.0000 c5         1 4D8      -0.040000
      5 C14          0.0000     0.0000     0.0000 c5         1 4D8      -0.024500
      6 C10          0.0000     0.0000     0.0000 c6         1 4D8       0.005200
      7 C17          0.0000     0.0000     0.0000 c5         1 4D8      -0.054700
      8 C5       96951410862595418718875027063356782943526516628585653076871616332081452583689707919688837778244206947835996722010470249551428105070331731700293345256510120039737720832.0000     0.0000     0.0000 c6         1 4D8      -0.033700
      9 C8           0.0000     0.0000     0.0000 c2         1 4D8      -0.104400
     10 C9           0.0000     0.0000     0.0000 c2         1 4D8      -0.108400
     11 C12          0.0000     0.0000     0.0000 c6         1 4D8      -0.059400
     12 C15          0.0000     0.0000     0.0000 c5         1 4D8      -0.070400
     13 C16          0.0000     0.0000     0.0000 c5         1 4D8      -0.078400
     14 C11          0.0000     0.0000     0.0000 c6         1 4D8      -0.035200
     15 C4           0.0000     0.0000     0.0000 c6         1 4D8      -0.162000
     16 C6           0.0000     0.0000     0.0000 c6         1 4D8      -0.063400
     17 C7           0.0000     0.0000     0.0000 c6         1 4D8      -0.032200
     18 C1           0.0000     0.0000     0.0000 c6         1 4D8      -0.055400
     19 C20          0.0000     0.0000     0.0000 c3         1 4D8      -0.046700
     20 C3           0.0000     0.0000     0.0000 c6         1 4D8       0.182300
     21 C2           0.0000     0.0000     0.0000 c6         1 4D8      -0.111400
     22 C4B          0.0000     0.0000     0.0000 c3         1 4D8      -0.044100
     23 C22          0.0000     0.0000     0.0000 c3         1 4D8      -0.074400
     24 C4A          0.0000     0.0000     0.0000 c          1 4D8       0.727000
     25 C21          0.0000     0.0000     0.0000 c3         1 4D8      -0.086100
     26 C23          0.0000     0.0000     0.0000 c3         1 4D8      -0.040200
     27 C24          0.0000     0.0000     0.0000 c2         1 4D8      -0.213200
     28 C25          0.0000     0.0000     0.0000 c2         1 4D8      -0.123400
     29 C26          0.0000     0.0000     0.0000 c3         1 4D8      -0.052400
     30 C27          0.0000     0.0000     0.0000 c3         1 4D8      -0.052400
     31 H1           0.0000     0.0000     0.0000 ho         1 4D8       0.408000
     32 H3           0.0000     0.0000     0.0000 hc         1 4D8       0.048700
     33 H4           0.0000     0.0000     0.0000 hc         1 4D8       0.042700
     34 H5           0.0000     0.0000     0.0000 hc         1 4D8       0.068700
     35 H6           0.0000     0.0000     0.0000 hc         1 4D8       0.032200
     36 H7           0.0000     0.0000     0.0000 hc         1 4D8       0.032200
     37 H8           0.0000     0.0000     0.0000 hc         1 4D8       0.044700
     38 H9           0.0000     0.0000     0.0000 hc         1 4D8       0.044700
     39 H10          0.0000     0.0000     0.0000 hc         1 4D8       0.032700
     40 H11          0.0000     0.0000     0.0000 hc         1 4D8       0.032700
     41 H12          0.0000     0.0000     0.0000 hc         1 4D8       0.038700
     42 H13          0.0000     0.0000     0.0000 hc         1 4D8       0.038700
     43 H14          0.0000     0.0000     0.0000 hc         1 4D8       0.052200
     44 H15          0.0000     0.0000     0.0000 hc         1 4D8       0.052200
     45 H16          0.0000     0.0000     0.0000 hc         1 4D8       0.036700
     46 H17          0.0000     0.0000     0.0000 hc         1 4D8       0.036700
     47 H18          0.0000     0.0000     0.0000 hc         1 4D8       0.025700
     48 H19          0.0000     0.0000     0.0000 hc         1 4D8       0.025700
     49 H20          0.0000     0.0000     0.0000 hc         1 4D8       0.044700
     50 H23          0.0000     0.0000     0.0000 hc         1 4D8       0.031367
     51 H24          0.0000     0.0000     0.0000 h1         1 4D8       0.051700
     52 H25          0.0000     0.0000     0.0000 hc         1 4D8       0.024700
     53 H26          0.0000     0.0000     0.0000 hc         1 4D8       0.024700
     54 H27          0.0000     0.0000     0.0000 hc         1 4D8       0.025367
     55 H28          0.0000     0.0000     0.0000 hc         1 4D8       0.025367
     56 H29          0.0000     0.0000     0.0000 hc         1 4D8       0.025367
     57 H30          0.0000     0.0000     0.0000 hc         1 4D8       0.017033
     58 H31          0.0000     0.0000     0.0000 hc         1 4D8       0.017033
     59 H32          0.0000     0.0000     0.0000 hc         1 4D8       0.017033
     60 H33          0.0000     0.0000     0.0000 hc         1 4D8       0.040200
     61 H34          0.0000     0.0000     0.0000 hc         1 4D8       0.040200
     62 H35          0.0000     0.0000     0.0000 hc         1 4D8       0.030700
     63 H36          0.0000     0.0000     0.0000 hc         1 4D8       0.030700
     64 H37          0.0000     0.0000     0.0000 hc         1 4D8       0.030700
     65 H38          0.0000     0.0000     0.0000 hc         1 4D8       0.042200
     66 H39          0.0000     0.0000     0.0000 hc         1 4D8       0.042200
     67 H40          0.0000     0.0000     0.0000 ha         1 4D8       0.163000
     68 H41          0.0000     0.0000     0.0000 hc         1 4D8       0.036033
     69 H42          0.0000     0.0000     0.0000 hc         1 4D8       0.036033
     70 H43          0.0000     0.0000     0.0000 hc         1 4D8       0.036033
     71 H44          0.0000     0.0000     0.0000 hc         1 4D8       0.036033
     72 H45          0.0000     0.0000     0.0000 hc         1 4D8       0.036033
     73 H46          0.0000     0.0000     0.0000 hc         1 4D8       0.036033
     74 C18          0.0000     0.0000     0.0000 c3         1 4D8      -0.075100
     75 H21          0.0000     0.0000     0.0000 hc         1 4D8       0.031367
     76 C19          0.0000     0.0000     0.0000 c3         1 4D8      -0.072100
     77 H22          0.0000     0.0000     0.0000 hc         1 4D8       0.031367
@<TRIPOS>BOND
     1     1    20 1   
     2     1    31 1   
     3     2    24 1   
     4     3    24 1   
     5     4     5 1   
     6     4     7 1   
     7     4    11 1   
     8     4    74 1   
     9     5     9 1   
    10     5    12 1   
    11     5    32 1   
    12     6     8 1   
    13     6    10 1   
    14     6    18 1   
    15     6    76 1   
    16     7    13 1   
    17     7    19 1   
    18     7    33 1   
    19     8    15 1   
    20     8    16 1   
    21     8    34 1   
    22     9    10 2   
    23     9    17 1   
    24    10    14 1   
    25    11    14 1   
    26    11    35 1   
    27    11    36 1   
    28    12    13 1   
    29    12    37 1   
    30    12    38 1   
    31    13    39 1   
    32    13    40 1   
    33    14    41 1   
    34    14    42 1   
    35    15    20 1   
    36    15    22 1   
    37    15    24 1   
    38    16    17 1   
    39    16    43 1   
    40    16    44 1   
    41    17    45 1   
    42    17    46 1   
    43    18    21 1   
    44    18    47 1   
    45    18    48 1   
    46    19    23 1   
    47    19    25 1   
    48    19    49 1   
    49    20    21 1   
    50    20    51 1   
    51    21    52 1   
    52    21    53 1   
    53    22    57 1   
    54    22    58 1   
    55    22    59 1   
    56    23    26 1   
    57    23    60 1   
    58    23    61 1   
    59    25    62 1   
    60    25    63 1   
    61    25    64 1   
    62    26    27 1   
    63    26    65 1   
    64    26    66 1   
    65    27    28 2   
    66    27    67 1   
    67    28    29 1   
    68    28    30 1   
    69    29    68 1   
    70    29    69 1   
    71    29    70 1   
    72    30    71 1   
    73    30    72 1   
    74    30    73 1   
    75    50    74 1   
    76    54    76 1   
    77    55    76 1   
    78    56    76 1   
    79    74    75 1   
    80    74    77 1   
@<TRIPOS>SUBSTRUCTURE
     1 4D8         1 TEMP              0 ****  ****    0 ROOT
