@<TRIPOS>MOLECULE
4D8
   77    80     1     0     0
SMALL
bcc


@<TRIPOS>ATOM
      1 O3          -6.9150    -1.0820     1.1030 oh         1 4D8      -0.578800
      2 OC1         -5.3070     1.6520     2.1740 o          1 4D8      -0.834800
      3 OC2         -6.3810     2.3550     0.3660 o          1 4D8      -0.834800
      4 C13          1.5320    -0.3620    -0.3440 c5         1 4D8      -0.040000
      5 C14          0.6610     0.8140     0.1210 c5         1 4D8      -0.024500
      6 C10         -2.8280    -0.8910    -0.2840 c6         1 4D8       0.005200
      7 C17          2.9360     0.1770     0.0150 c5         1 4D8      -0.054700
      8 C5          -3.6090     0.3720     0.1670 c6         1 4D8      -0.033700
      9 C8          -0.8140     0.6050    -0.0920 c2         1 4D8      -0.104400
     10 C9          -1.3340    -0.6290    -0.0560 c2         1 4D8      -0.108400
     11 C12          1.0260    -1.5730     0.4270 c6         1 4D8      -0.059400
     12 C15          1.3480     2.0340    -0.4860 c5         1 4D8      -0.070400
     13 C16          2.8440     1.6810    -0.3690 c5         1 4D8      -0.078400
     14 C11         -0.4530    -1.8460     0.1320 c6         1 4D8      -0.035200
     15 C4          -5.1580     0.2760     0.2120 c6         1 4D8      -0.162000
     16 C6          -3.0970     1.5950    -0.5830 c6         1 4D8      -0.063400
     17 C7          -1.6390     1.8510    -0.2400 c6         1 4D8      -0.032200
     18 C1          -3.3190    -2.0750     0.5690 c6         1 4D8      -0.055400
     19 C20          4.1760    -0.5010    -0.5850 c3         1 4D8      -0.046700
     20 C3          -5.5050    -0.9540     1.0570 c6         1 4D8       0.159100
     21 C2          -4.8350    -2.2220     0.5530 c6         1 4D8      -0.111400
     22 C4B         -5.8070     0.2090    -1.1700 c3         1 4D8      -0.044100
     23 C22          5.4390     0.1940    -0.0590 c3         1 4D8      -0.074400
     24 C4A         -5.6680     1.5390     0.9830 c          1 4D8       0.937600
     25 C21          4.2320    -2.0010    -0.3010 c3         1 4D8      -0.086100
     26 C23          6.7560    -0.2980    -0.6680 c3         1 4D8      -0.040200
     27 C24          7.9040     0.5680    -0.2510 c2         1 4D8      -0.163200
     28 C25          8.9140     0.2620     0.5680 c2         1 4D8      -0.123400
     29 C26          9.9670     1.2770     0.9080 c3         1 4D8      -0.052400
     30 C27          9.1100    -1.0720     1.2260 c3         1 4D8      -0.052400
     31 H1          -7.1240    -1.8190     1.6850 ho         1 4D8       0.369000
     32 H3           0.8190     0.8990     1.2080 hc         1 4D8       0.048700
     33 H4           3.0280     0.1060     1.1080 hc         1 4D8       0.042700
     34 H5          -3.3160     0.5080     1.2160 hc         1 4D8       0.068700
     35 H6           1.5940    -2.4780     0.2040 hc         1 4D8       0.032200
     36 H7           1.1610    -1.3850     1.4980 hc         1 4D8       0.032200
     37 H8           1.0560     2.1730    -1.5300 hc         1 4D8       0.044700
     38 H9           1.0950     2.9580     0.0350 hc         1 4D8       0.044700
     39 H10          3.3380     2.3050     0.3770 hc         1 4D8       0.032700
     40 H11          3.3610     1.8700    -1.3150 hc         1 4D8       0.032700
     41 H12         -0.8480    -2.4610     0.9440 hc         1 4D8       0.038700
     42 H13         -0.5330    -2.4810    -0.7580 hc         1 4D8       0.038700
     43 H14         -3.2050     1.4570    -1.6610 hc         1 4D8       0.052200
     44 H15         -3.6860     2.4810    -0.3390 hc         1 4D8       0.052200
     45 H16         -1.5740     2.4160     0.7000 hc         1 4D8       0.036700
     46 H17         -1.1860     2.5040    -0.9920 hc         1 4D8       0.036700
     47 H18         -2.8630    -3.0070     0.2270 hc         1 4D8       0.025700
     48 H19         -2.9890    -1.9350     1.6050 hc         1 4D8       0.025700
     49 H20          4.1490    -0.3600    -1.6740 hc         1 4D8       0.044700
     50 H23          1.9810    -1.4800    -2.1540 hc         1 4D8       0.031367
     51 H24         -5.1150    -0.7640     2.0670 h1         1 4D8       0.051700
     52 H25         -5.1940    -2.4780    -0.4480 hc         1 4D8       0.024700
     53 H26         -5.1170    -3.0610     1.1990 hc         1 4D8       0.024700
     54 H27         -2.2160    -1.9800    -2.0610 hc         1 4D8       0.025367
     55 H28         -3.9430    -1.7240    -1.9950 hc         1 4D8       0.025367
     56 H29         -2.8800    -0.3950    -2.4250 hc         1 4D8       0.025367
     57 H30         -5.6080    -0.7310    -1.6790 hc         1 4D8       0.017033
     58 H31         -6.8880     0.3220    -1.1050 hc         1 4D8       0.017033
     59 H32         -5.4400     1.0050    -1.8180 hc         1 4D8       0.017033
     60 H33          5.3640     1.2690    -0.2440 hc         1 4D8       0.040200
     61 H34          5.4860     0.0790     1.0300 hc         1 4D8       0.040200
     62 H35          5.1460    -2.4490    -0.6910 hc         1 4D8       0.030700
     63 H36          4.2010    -2.1970     0.7740 hc         1 4D8       0.030700
     64 H37          3.4030    -2.5370    -0.7600 hc         1 4D8       0.030700
     65 H38          6.9330    -1.3390    -0.3990 hc         1 4D8       0.042200
     66 H39          6.6660    -0.2730    -1.7600 hc         1 4D8       0.042200
     67 H40          7.8750     1.5810    -0.6490 ha         1 4D8       0.113000
     68 H41         10.9580     0.9330     0.6030 hc         1 4D8       0.036033
     69 H42          9.7810     2.2380     0.4290 hc         1 4D8       0.036033
     70 H43         10.0170     1.4430     1.9870 hc         1 4D8       0.036033
     71 H44          8.3510    -1.8060     0.9630 hc         1 4D8       0.036033
     72 H45         10.0850    -1.4910     0.9620 hc         1 4D8       0.036033
     73 H46          9.1060    -0.9650     2.3140 hc         1 4D8       0.036033
     74 C18          1.4150    -0.5970    -1.8530 c3         1 4D8      -0.075100
     75 H21          0.3810    -0.7520    -2.1620 hc         1 4D8       0.031367
     76 C19         -2.9840    -1.2600    -1.7710 c3         1 4D8      -0.072100
     77 H22          1.8020     0.2430    -2.4320 hc         1 4D8       0.031367
@<TRIPOS>BOND
     1     1    20 1   
     2     1    31 1   
     3     2    24 1   
     4     3    24 1   
     5     4     5 1   
     6     4     7 1   
     7     4    11 1   
     8     4    74 1   
     9     5     9 1   
    10     5    12 1   
    11     5    32 1   
    12     6     8 1   
    13     6    10 1   
    14     6    18 1   
    15     6    76 1   
    16     7    13 1   
    17     7    19 1   
    18     7    33 1   
    19     8    15 1   
    20     8    16 1   
    21     8    34 1   
    22     9    10 2   
    23     9    17 1   
    24    10    14 1   
    25    11    14 1   
    26    11    35 1   
    27    11    36 1   
    28    12    13 1   
    29    12    37 1   
    30    12    38 1   
    31    13    39 1   
    32    13    40 1   
    33    14    41 1   
    34    14    42 1   
    35    15    20 1   
    36    15    22 1   
    37    15    24 1   
    38    16    17 1   
    39    16    43 1   
    40    16    44 1   
    41    17    45 1   
    42    17    46 1   
    43    18    21 1   
    44    18    47 1   
    45    18    48 1   
    46    19    23 1   
    47    19    25 1   
    48    19    49 1   
    49    20    21 1   
    50    20    51 1   
    51    21    52 1   
    52    21    53 1   
    53    22    57 1   
    54    22    58 1   
    55    22    59 1   
    56    23    26 1   
    57    23    60 1   
    58    23    61 1   
    59    25    62 1   
    60    25    63 1   
    61    25    64 1   
    62    26    27 1   
    63    26    65 1   
    64    26    66 1   
    65    27    28 2   
    66    27    67 1   
    67    28    29 1   
    68    28    30 1   
    69    29    68 1   
    70    29    69 1   
    71    29    70 1   
    72    30    71 1   
    73    30    72 1   
    74    30    73 1   
    75    50    74 1   
    76    54    76 1   
    77    55    76 1   
    78    56    76 1   
    79    74    75 1   
    80    74    77 1   
@<TRIPOS>SUBSTRUCTURE
     1 4D8         1 TEMP              0 ****  ****    0 ROOT
