@<TRIPOS>MOLECULE
4D9
   40    43     1     0     0
SMALL
bcc


@<TRIPOS>ATOM
      1 C1          -3.8860     2.4980    -1.1610 ca         1 4D9      -0.130000
      2 C2          -3.6670     3.7990    -0.7400 ca         1 4D9      -0.132000
      3 C3          -3.0240     4.0760     0.4760 ca         1 4D9      -0.163000
      4 C4          -2.5820     3.0600     1.3060 ca         1 4D9      -0.076000
      5 N5          -3.4750     0.1190    -0.4080 na         1 4D9      -0.260300
      6 C6          -3.4360     1.4860    -0.3230 ca         1 4D9      -0.086200
      7 C7          -2.7920     1.7440     0.8990 ca         1 4D9       0.079400
      8 N8          -2.4630     0.5590     1.5160 nc         1 4D9      -0.608100
      9 C9          -2.8830    -0.3790     0.7100 cd         1 4D9       0.453800
     10 C10         -2.6830    -1.8370     0.9170 c3         1 4D9      -0.107700
     11 C11         -1.6030    -2.3990    -0.0190 c3         1 4D9      -0.041300
     12 C12         -1.3420    -3.8990     0.2860 c          1 4D9       0.929600
     13 N13         -0.4230    -1.5750     0.0770 ns         1 4D9      -0.521900
     14 O14         -0.1850    -4.2310     0.5830 o          1 4D9      -0.816800
     15 O15         -2.3500    -4.6250     0.1970 o          1 4D9      -0.816800
     16 C16          0.4680    -1.4740    -0.9170 c          1 4D9       0.701300
     17 C17          1.6320    -0.5920    -0.6540 cc         1 4D9      -0.089600
     18 O18          0.3520    -2.0300    -2.0010 o          1 4D9      -0.609100
     19 C19          2.8020    -0.6370    -1.3350 cd         1 4D9      -0.090200
     20 S20          1.6100     0.6590     0.5580 ss         1 4D9      -0.042500
     21 C21          3.2310     1.1210     0.1640 ca         1 4D9      -0.041100
     22 C22          3.7480     0.3330    -0.8800 ca         1 4D9      -0.076800
     23 C23          5.0520     0.5760    -1.3330 ca         1 4D9      -0.088000
     24 C24          5.7940     1.5800    -0.7480 ca         1 4D9      -0.147000
     25 C25          5.2590     2.3560     0.2900 ca         1 4D9      -0.132000
     26 C26          3.9770     2.1380     0.7550 ca         1 4D9      -0.100000
     27 H1          -4.3840     2.2840    -2.0990 ha         1 4D9       0.128000
     28 H2          -3.9970     4.6200    -1.3630 ha         1 4D9       0.117000
     29 H3          -2.8730     5.1070     0.7680 ha         1 4D9       0.118000
     30 H4          -2.0870     3.2800     2.2440 ha         1 4D9       0.137000
     31 H10         -2.3990    -1.9930     1.9600 hc         1 4D9       0.079700
     32 H10A        -3.6080    -2.3860     0.7440 hc         1 4D9       0.079700
     33 H11         -1.9670    -2.3320    -1.0480 h1         1 4D9       0.057700
     34 HN13        -0.1620    -1.2590     0.9990 hn         1 4D9       0.313500
     35 H19          2.9970    -1.3420    -2.1310 ha         1 4D9       0.171000
     36 H23          5.4670    -0.0220    -2.1350 ha         1 4D9       0.130000
     37 H24          6.8010     1.7730    -1.0900 ha         1 4D9       0.120000
     38 H25          5.8590     3.1380     0.7360 ha         1 4D9       0.119000
     39 H26          3.5670     2.7380     1.5570 ha         1 4D9       0.133000
     40 HN5         -3.8880    -0.4210    -1.1520 hn         1 4D9       0.310700
@<TRIPOS>BOND
     1     1     2 ar  
     2     1     6 ar  
     3     1    27 1   
     4     2     3 ar  
     5     2    28 1   
     6     3     4 ar  
     7     3    29 1   
     8     4     7 ar  
     9     4    30 1   
    10     5     6 1   
    11     5     9 1   
    12     5    40 1   
    13     6     7 ar  
    14     7     8 1   
    15     8     9 2   
    16     9    10 1   
    17    10    11 1   
    18    10    31 1   
    19    10    32 1   
    20    11    12 1   
    21    11    13 1   
    22    11    33 1   
    23    12    14 1   
    24    12    15 1   
    25    13    16 1   
    26    13    34 1   
    27    16    17 1   
    28    16    18 2   
    29    17    19 2   
    30    17    20 1   
    31    19    22 1   
    32    19    35 1   
    33    20    21 1   
    34    21    22 ar  
    35    21    26 ar  
    36    22    23 ar  
    37    23    24 ar  
    38    23    36 1   
    39    24    25 ar  
    40    24    37 1   
    41    25    26 ar  
    42    25    38 1   
    43    26    39 1   
@<TRIPOS>SUBSTRUCTURE
     1 4D9         1 TEMP              0 ****  ****    0 ROOT
