@<TRIPOS>MOLECULE
4D9
   40    43     1     0     0
SMALL
No Charge or Current Charge


@<TRIPOS>ATOM
      1 C1          -4.0160     2.2000    -1.6100 ca         1 4D9      -0.112000
      2 C2          -3.8500     3.5920    -1.4560 ca         1 4D9      -0.114000
      3 C3          -3.1660     4.1060    -0.3300 ca         1 4D9      -0.145000
      4 C4          -2.6440     3.2300     0.6480 ca         1 4D9      -0.058000
      5 N5          -3.5120     0.0020    -0.5420 na         1 4D9      -0.310600
      6 C6          -3.4830     1.3660    -0.6190 ca         1 4D9      -0.086200
      7 C7          -2.8190     1.8490     0.4740 ca         1 4D9       0.079400
      8 N8          -2.3920     0.8260     1.3020 nc         1 4D9      -0.608100
      9 C9          -2.8200    -0.2700     0.6440 cd         1 4D9       0.453800
     10 C10         -2.5930    -1.6600     1.1760 c3         1 4D9      -0.107700
     11 C11         -1.5710    -2.4920     0.3590 c3         1 4D9      -0.041300
     12 C12         -1.4520    -3.9450     0.9120 c          1 4D9       0.719000
     13 N13         -0.2380    -1.8420     0.3310 ns         1 4D9      -0.454900
     14 O14         -0.8070    -4.1270     1.9360 o          1 4D9      -0.711500
     15 O15         -1.9410    -4.8530     0.2540 o          1 4D9      -0.711500
     16 C16          0.2160    -0.9860    -0.6510 c          1 4D9       0.634300
     17 C17          1.5630    -0.4280    -0.3860 cc         1 4D9      -0.089600
     18 O18         -0.4430    -0.7270    -1.6500 o          1 4D9      -0.609100
     19 C19          2.2200     0.4490    -1.2310 cd         1 4D9      -0.140200
     20 S20          2.5370    -0.7940     1.0690 ss         1 4D9       0.084400
     21 C21          3.8210     0.2850     0.4480 ca         1 4D9      -0.168000
     22 C22          3.5200     0.8680    -0.7660 ca         1 4D9      -0.076800
     23 C23          4.4130     1.7440    -1.4010 ca         1 4D9      -0.070000
     24 C24          5.6420     2.0230    -0.7710 ca         1 4D9      -0.129000
     25 C25          5.9550     1.4280     0.4710 ca         1 4D9      -0.114000
     26 C26          5.0410     0.5520     1.0900 ca         1 4D9      -0.082000
     27 H1          -4.5390     1.7900    -2.4710 ha         1 4D9       0.110000
     28 H2          -4.2500     4.2710    -2.2060 ha         1 4D9       0.099000
     29 H3          -3.0410     5.1800    -0.2160 ha         1 4D9       0.100000
     30 H4          -2.1160     3.6160     1.5160 ha         1 4D9       0.119000
     31 H10         -2.2590    -1.6070     2.2190 hc         1 4D9       0.079700
     32 H10A        -3.5500    -2.1940     1.1920 hc         1 4D9       0.079700
     33 H11         -1.9360    -2.5760    -0.6730 h1         1 4D9       0.057700
     34 HN13         0.3920    -2.0210     1.1040 hn         1 4D9       0.313500
     35 H19          1.7860     0.7930    -2.1670 ha         1 4D9       0.221000
     36 H23          4.1630     2.1970    -2.3580 ha         1 4D9       0.112000
     37 H24          6.3520     2.6990    -1.2440 ha         1 4D9       0.102000
     38 H25          6.9050     1.6470     0.9530 ha         1 4D9       0.101000
     39 H26          5.2770     0.0910     2.0470 ha         1 4D9       0.115000
     40 HN5         -3.9050    -0.6670    -1.1900 hn         1 4D9       0.361000
@<TRIPOS>BOND
     1     1     2 ar  
     2     1     6 ar  
     3     1    27 1   
     4     2     3 ar  
     5     2    28 1   
     6     3     4 ar  
     7     3    29 1   
     8     4     7 ar  
     9     4    30 1   
    10     5     6 1   
    11     5     9 1   
    12     5    40 1   
    13     6     7 ar  
    14     7     8 1   
    15     8     9 2   
    16     9    10 1   
    17    10    11 1   
    18    10    31 1   
    19    10    32 1   
    20    11    12 1   
    21    11    13 1   
    22    11    33 1   
    23    12    14 1   
    24    12    15 1   
    25    13    16 1   
    26    13    34 1   
    27    16    17 1   
    28    16    18 2   
    29    17    19 2   
    30    17    20 1   
    31    19    22 1   
    32    19    35 1   
    33    20    21 1   
    34    21    22 ar  
    35    21    26 ar  
    36    22    23 ar  
    37    23    24 ar  
    38    23    36 1   
    39    24    25 ar  
    40    24    37 1   
    41    25    26 ar  
    42    25    38 1   
    43    26    39 1   
@<TRIPOS>SUBSTRUCTURE
     1 4D9         1 TEMP              0 ****  ****    0 ROOT
