@<TRIPOS>MOLECULE
4DB
   37    38     1     0     0
SMALL
bcc


@<TRIPOS>ATOM
      1 C            6.3450   -16.2900    -8.7570 c          1 4DB       0.934600
      2 N            8.8020   -16.4800    -8.8420 n8         1 4DB      -0.889800
      3 O            6.3560   -16.8260    -9.8830 o          1 4DB      -0.837800
      4 CA           7.6610   -16.3640    -7.9410 c3         1 4DB       0.023500
      5 CB           7.8800   -15.1540    -7.0310 c3         1 4DB      -0.055400
      6 CAD         11.4940   -18.6890    -0.4350 c3         1 4DB       0.223100
      7 CAE         10.0700   -20.7040    -0.0390 c3         1 4DB       0.223100
      8 CAF          8.2300   -19.7280    -1.9370 ca         1 4DB      -0.226000
      9 CAG          7.3020   -19.2790    -2.8600 ca         1 4DB      -0.019000
     10 CAH          9.6270   -17.7740    -2.3180 ca         1 4DB      -0.163000
     11 CAI          9.4110   -19.0010    -1.6400 ca         1 4DB       0.207600
     12 CAJ          6.7650   -17.3380    -4.5120 c          1 4DB       0.728100
     13 CAK          8.6640   -16.1300    -4.0520 c          1 4DB       0.717100
     14 CAL          7.5380   -18.0820    -3.5110 ca         1 4DB      -0.202600
     15 CAM          8.6870   -17.3630    -3.2240 ca         1 4DB      -0.094600
     16 NAN         10.3070   -19.4600    -0.7350 nh         1 4DB      -0.696000
     17 NAO          7.5030   -16.1860    -4.7950 n          1 4DB      -0.507400
     18 CAR          7.0970   -15.1450    -5.7230 c3         1 4DB       0.107000
     19 OXT          5.3710   -15.7330    -8.2120 o          1 4DB      -0.837800
     20 HN           9.5920   -16.8660    -8.3410 hn         1 4DB       0.325300
     21 HNA          8.5650   -17.1400    -9.5710 hn         1 4DB       0.325300
     22 HA           7.5610   -17.2610    -7.3030 h1         1 4DB      -0.003300
     23 HB           8.9450   -15.0810    -6.7940 hc         1 4DB       0.037200
     24 HBA          7.6320   -14.2360    -7.5710 hc         1 4DB       0.037200
     25 HAD         12.1210   -18.5440    -1.3190 h1         1 4DB       0.035200
     26 HADA        11.2510   -17.7050    -0.0260 h1         1 4DB       0.035200
     27 HADB        12.0880   -19.2160     0.3050 h1         1 4DB       0.035200
     28 HAE          9.1580   -20.6710     0.5620 h1         1 4DB       0.035200
     29 HAEA         9.9890   -21.5480    -0.7290 h1         1 4DB       0.035200
     30 HAEB        10.9000   -20.9040     0.6310 h1         1 4DB       0.035200
     31 HAF          8.0330   -20.6650    -1.4360 ha         1 4DB       0.126000
     32 HAG          6.4130   -19.8650    -3.0550 ha         1 4DB       0.146000
     33 HAH         10.5030   -17.1670    -2.1350 ha         1 4DB       0.148000
     34 HAR          7.2270   -14.1840    -5.2230 h1         1 4DB       0.069700
     35 HARA         6.0360   -15.2680    -5.9190 h1         1 4DB       0.069700
     36 OAP          5.7010   -17.6180    -5.0120 o          1 4DB      -0.535500
     37 OAQ          9.4780   -15.2380    -4.0790 o          1 4DB      -0.590500
@<TRIPOS>BOND
     1     1     3 1   
     2     1     4 1   
     3     1    19 1   
     4     2     4 1   
     5     2    20 1   
     6     2    21 1   
     7     4     5 1   
     8     4    22 1   
     9     5    18 1   
    10     5    23 1   
    11     5    24 1   
    12     6    16 1   
    13     6    25 1   
    14     6    26 1   
    15     6    27 1   
    16     7    16 1   
    17     7    28 1   
    18     7    29 1   
    19     7    30 1   
    20     8     9 ar  
    21     8    11 ar  
    22     8    31 1   
    23     9    14 ar  
    24     9    32 1   
    25    10    11 ar  
    26    10    15 ar  
    27    10    33 1   
    28    11    16 1   
    29    12    14 1   
    30    12    17 1   
    31    12    36 2   
    32    13    15 1   
    33    13    17 1   
    34    13    37 2   
    35    14    15 ar  
    36    17    18 1   
    37    18    34 1   
    38    18    35 1   
@<TRIPOS>SUBSTRUCTURE
     1 4DB         1 TEMP              0 ****  ****    0 ROOT
