@<TRIPOS>MOLECULE
4DB
   37    38     1     0     0
SMALL
No Charge or Current Charge


@<TRIPOS>ATOM
      1 C            6.1320   -16.4650    -8.4550 c          1 4DB       0.724000
      2 N            8.6510   -16.1980    -9.1440 n8         1 4DB      -1.000200
      3 O            5.7970   -17.5800    -8.8370 o          1 4DB      -0.732500
      4 CA           7.6510   -16.2570    -8.0170 c3         1 4DB       0.023500
      5 CB           7.8650   -15.0320    -7.0790 c3         1 4DB      -0.055400
      6 CAD         11.6650   -19.0090    -0.5140 c3         1 4DB       0.223100
      7 CAE          9.8290   -20.5140     0.3550 c3         1 4DB       0.223100
      8 CAF          8.3670   -19.8710    -2.1540 ca         1 4DB      -0.208000
      9 CAG          7.4910   -19.4290    -3.1680 ca         1 4DB      -0.001000
     10 CAH          9.5690   -17.7410    -2.1980 ca         1 4DB      -0.145000
     11 CAI          9.4080   -19.0410    -1.6600 ca         1 4DB       0.346000
     12 CAJ          6.9240   -17.4050    -4.7290 c          1 4DB       0.585600
     13 CAK          8.6210   -16.0160    -3.9410 c          1 4DB       0.574600
     14 CAL          7.6810   -18.1400    -3.6770 ca         1 4DB      -0.202600
     15 CAM          8.6920   -17.3160    -3.2070 ca         1 4DB      -0.094600
     16 NAN         10.2750   -19.5090    -0.6390 nh         1 4DB      -0.834400
     17 NAO          7.5630   -16.1680    -4.8370 n          1 4DB      -0.373400
     18 CAR          7.1030   -15.0870    -5.7320 c3         1 4DB       0.107000
     19 OXT          5.3670   -15.5070    -8.4610 o          1 4DB      -0.732500
     20 HN           9.6020   -16.2230    -8.7570 hn         1 4DB       0.380500
     21 HNA          8.5850   -17.0660    -9.6900 hn         1 4DB       0.380500
     22 HA           7.9250   -17.1500    -7.4400 h1         1 4DB      -0.003300
     23 HB           8.9340   -14.9240    -6.8590 hc         1 4DB       0.037200
     24 HBA          7.5670   -14.1190    -7.6090 hc         1 4DB       0.037200
     25 HAD         12.1000   -18.8240    -1.5050 h1         1 4DB       0.035200
     26 HADA        11.6870   -18.0740     0.0630 h1         1 4DB       0.035200
     27 HADB        12.3010   -19.7460    -0.0060 h1         1 4DB       0.035200
     28 HAE          8.7720   -20.3610     0.6130 h1         1 4DB       0.035200
     29 HAEA         9.9530   -21.5300    -0.0430 h1         1 4DB       0.035200
     30 HAEB        10.4110   -20.4310     1.2830 h1         1 4DB       0.035200
     31 HAF          8.2370   -20.8740    -1.7600 ha         1 4DB       0.108000
     32 HAG          6.6960   -20.0710    -3.5440 ha         1 4DB       0.128000
     33 HAH         10.3450   -17.0740    -1.8370 ha         1 4DB       0.130000
     34 HAR          7.2370   -14.1280    -5.2160 h1         1 4DB       0.069700
     35 HARA         6.0270   -15.2000    -5.9160 h1         1 4DB       0.069700
     36 OAP          5.9460   -17.7910    -5.3500 o          1 4DB      -0.460000
     37 OAQ          9.3290   -15.0300    -3.7930 o          1 4DB      -0.515000
@<TRIPOS>BOND
     1     1     3 1   
     2     1     4 1   
     3     1    19 1   
     4     2     4 1   
     5     2    20 1   
     6     2    21 1   
     7     4     5 1   
     8     4    22 1   
     9     5    18 1   
    10     5    23 1   
    11     5    24 1   
    12     6    16 1   
    13     6    25 1   
    14     6    26 1   
    15     6    27 1   
    16     7    16 1   
    17     7    28 1   
    18     7    29 1   
    19     7    30 1   
    20     8     9 ar  
    21     8    11 ar  
    22     8    31 1   
    23     9    14 ar  
    24     9    32 1   
    25    10    11 ar  
    26    10    15 ar  
    27    10    33 1   
    28    11    16 1   
    29    12    14 1   
    30    12    17 1   
    31    12    36 2   
    32    13    15 1   
    33    13    17 1   
    34    13    37 2   
    35    14    15 ar  
    36    17    18 1   
    37    18    34 1   
    38    18    35 1   
@<TRIPOS>SUBSTRUCTURE
     1 4DB         1 TEMP              0 ****  ****    0 ROOT
