@<TRIPOS>MOLECULE
4DC
   47    49     1     0     0
SMALL
No Charge or Current Charge


@<TRIPOS>ATOM
      1 C1           0.4490     0.1790    -0.0370 ca         1 4DC      -0.023300
      2 C2           1.1700    -0.1310    -1.2090 ca         1 4DC      -0.112500
      3 C3           2.4970    -0.5860    -1.1350 ca         1 4DC      -0.016500
      4 C4           3.1230    -0.7390     0.1190 ca         1 4DC      -0.264500
      5 C5           2.4090    -0.4300     1.2940 ca         1 4DC      -0.016500
      6 C6           1.0810     0.0240     1.2130 ca         1 4DC      -0.112500
      7 C8          -1.9560    -0.4580    -0.4960 c          1 4DC       0.609100
      8 O9          -1.8940    -1.0090    -1.5860 o          1 4DC      -0.509100
      9 C10         -0.9950     0.6870    -0.1040 c3         1 4DC      -0.103400
     10 C11         -1.1730     1.9180    -1.0400 c3         1 4DC      -0.059400
     11 C12         -0.2570     3.1270    -0.7150 c5         1 4DC      -0.070700
     12 C13         -0.5120     4.3690    -1.6040 c5         1 4DC      -0.077900
     13 C14          0.4030     5.4300    -0.9330 c5         1 4DC      -0.079400
     14 C15          0.3830     5.0650     0.5870 c5         1 4DC      -0.079400
     15 C16         -0.4790     3.7720     0.6780 c5         1 4DC      -0.077900
     16 C17         -3.8430    -1.7580     0.4760 cc         1 4DC       0.576300
     17 S18         -4.8700    -2.0000     1.8670 ss         1 4DC      -0.102400
     18 C19         -5.6720    -3.2630     0.9820 cc         1 4DC      -0.269000
     19 C20         -5.1270    -3.4140    -0.2700 cd         1 4DC       0.308900
     20 N21         -4.0800    -2.5500    -0.5560 nd         1 4DC      -0.652000
     21 S22          4.8330    -1.3070     0.2180 sy         1 4DC       1.058500
     22 C23          5.7710     0.2190     0.1530 c3         1 4DC      -0.338100
     23 O24          5.0660    -1.8860     1.5470 o          1 4DC      -0.521500
     24 O25          5.1590    -2.0510    -1.0060 o          1 4DC      -0.521500
     25 H2           0.7030    -0.0230    -2.1850 ha         1 4DC       0.124000
     26 H3           3.0330    -0.8160    -2.0550 ha         1 4DC       0.139000
     27 H5           2.8760    -0.5360     2.2720 ha         1 4DC       0.139000
     28 H6           0.5460     0.2600     2.1300 ha         1 4DC       0.124000
     29 HN7         -2.7840    -0.2540     1.3340 hn         1 4DC       0.327500
     30 H10         -1.2840     1.0210     0.8990 hc         1 4DC       0.058700
     31 H11         -1.0030     1.6100    -2.0790 hc         1 4DC       0.056700
     32 H11A        -2.2220     2.2360    -0.9940 hc         1 4DC       0.056700
     33 H12          0.7810     2.7880    -0.8250 hc         1 4DC       0.053700
     34 H13         -0.2440     4.1970    -2.6530 hc         1 4DC       0.041450
     35 H13A        -1.5650     4.6760    -1.5830 hc         1 4DC       0.041450
     36 H14          1.4230     5.3740    -1.3300 hc         1 4DC       0.044200
     37 H14A         0.0460     6.4500    -1.1190 hc         1 4DC       0.044200
     38 H15          1.4000     4.8860     0.9540 hc         1 4DC       0.044200
     39 H15A        -0.0380     5.8700     1.2000 hc         1 4DC       0.044200
     40 H16         -1.5370     4.0090     0.8490 hc         1 4DC       0.041450
     41 H16A        -0.1550     3.1240     1.5000 hc         1 4DC       0.041450
     42 H19         -6.4880    -3.8130     1.4320 h4         1 4DC       0.164000
     43 H20         -5.4480    -4.1320    -1.0150 h4         1 4DC       0.047100
     44 H23          5.4740     0.8390     1.0050 h1         1 4DC       0.102367
     45 H23A         6.8350    -0.0320     0.2080 h1         1 4DC       0.102367
     46 H23B         5.5390     0.7220    -0.7910 h1         1 4DC       0.102367
     47 N7          -2.8620    -0.7960     0.4860 ns         1 4DC      -0.483400
@<TRIPOS>BOND
     1     1     2 ar  
     2     1     6 ar  
     3     1     9 1   
     4     2     3 ar  
     5     2    25 1   
     6     3     4 ar  
     7     3    26 1   
     8     4     5 ar  
     9     4    21 1   
    10     5     6 ar  
    11     5    27 1   
    12     6    28 1   
    13     7     8 2   
    14     7     9 1   
    15     7    47 1   
    16     9    10 1   
    17     9    30 1   
    18    10    11 1   
    19    10    31 1   
    20    10    32 1   
    21    11    12 1   
    22    11    15 1   
    23    11    33 1   
    24    12    13 1   
    25    12    34 1   
    26    12    35 1   
    27    13    14 1   
    28    13    36 1   
    29    13    37 1   
    30    14    15 1   
    31    14    38 1   
    32    14    39 1   
    33    15    40 1   
    34    15    41 1   
    35    16    17 1   
    36    16    20 2   
    37    16    47 1   
    38    17    18 1   
    39    18    19 2   
    40    18    42 1   
    41    19    20 1   
    42    19    43 1   
    43    21    22 1   
    44    21    23 2   
    45    21    24 2   
    46    22    44 1   
    47    22    45 1   
    48    22    46 1   
    49    29    47 1   
@<TRIPOS>SUBSTRUCTURE
     1 4DC         1 TEMP              0 ****  ****    0 ROOT
