@<TRIPOS>MOLECULE
4DC
   47    49     1     0     0
SMALL
abcg2


@<TRIPOS>ATOM
      1 C1           0.6200     0.1620     0.0080 ca         1 4DC      -0.023300
      2 C2           1.3040    -0.1510    -1.1650 ca         1 4DC      -0.112500
      3 C3           2.6000    -0.6370    -1.1210 ca         1 4DC      -0.016500
      4 C4           3.2170    -0.8120     0.1110 ca         1 4DC      -0.264500
      5 C5           2.5580    -0.5070     1.2920 ca         1 4DC      -0.016500
      6 C6           1.2620    -0.0200     1.2300 ca         1 4DC      -0.112500
      7 C8          -1.7500    -0.4660    -0.3710 c          1 4DC       0.609100
      8 O9          -1.5960    -1.1650    -1.3440 o          1 4DC      -0.509100
      9 C10         -0.7990     0.6710    -0.0150 c3         1 4DC      -0.103400
     10 C11         -1.0220     1.8270    -1.0040 c3         1 4DC      -0.059400
     11 C12         -0.1430     3.0380    -0.7240 c5         1 4DC      -0.070700
     12 C13         -0.4410     4.2180    -1.6840 c5         1 4DC      -0.077900
     13 C14         -0.5280     5.4800    -0.8050 c5         1 4DC      -0.079400
     14 C15          0.1200     5.0810     0.5200 c5         1 4DC      -0.079400
     15 C16         -0.3030     3.6250     0.6840 c5         1 4DC      -0.077900
     16 C17         -3.8450    -1.4840     0.4160 cc         1 4DC       0.576300
     17 S18         -5.0080    -1.5240     1.7080 ss         1 4DC      -0.102400
     18 C19         -5.8390    -2.7750     0.8710 cc         1 4DC      -0.269000
     19 C20         -5.1910    -3.0560    -0.2830 cd         1 4DC       0.308900
     20 N21         -4.0640    -2.3240    -0.5380 nd         1 4DC      -0.652000
     21 S22          4.8750    -1.4360     0.1710 sy         1 4DC       1.058500
     22 C23          5.8880     0.0240     0.1550 c3         1 4DC      -0.338100
     23 O24          5.0660    -2.1140     1.4520 o          1 4DC      -0.521500
     24 O25          5.1280    -2.1830    -1.0600 o          1 4DC      -0.521500
     25 H2           0.8350    -0.0140    -2.1290 ha         1 4DC       0.124000
     26 H3           3.1150    -0.8760    -2.0410 ha         1 4DC       0.139000
     27 H5           3.0350    -0.6490     2.2530 ha         1 4DC       0.139000
     28 H6           0.7440     0.2180     2.1500 ha         1 4DC       0.124000
     29 HN7         -2.8130     0.0380     1.2890 hn         1 4DC       0.327500
     30 H10         -1.0370     1.0370     0.9880 hc         1 4DC       0.058700
     31 H11         -0.8590     1.4750    -2.0260 hc         1 4DC       0.056700
     32 H11A        -2.0720     2.1320    -0.9460 hc         1 4DC       0.056700
     33 H12          0.9040     2.7460    -0.8510 hc         1 4DC       0.053700
     34 H13          0.3480     4.3080    -2.4330 hc         1 4DC       0.041450
     35 H13A        -1.3710     4.0570    -2.2330 hc         1 4DC       0.041450
     36 H14         -0.0550     6.3480    -1.2660 hc         1 4DC       0.044200
     37 H14A        -1.5750     5.7420    -0.6320 hc         1 4DC       0.044200
     38 H15          1.2100     5.1440     0.4430 hc         1 4DC       0.044200
     39 H15A        -0.1850     5.7150     1.3540 hc         1 4DC       0.044200
     40 H16         -1.3530     3.5790     0.9950 hc         1 4DC       0.041450
     41 H16A         0.2810     3.0920     1.4380 hc         1 4DC       0.041450
     42 H19         -6.7370    -3.2190     1.2690 h4         1 4DC       0.164000
     43 H20         -5.5080    -3.8040    -0.9960 h4         1 4DC       0.047100
     44 H23          5.6670     0.6310     1.0300 h1         1 4DC       0.102367
     45 H23A         6.9270    -0.3040     0.1830 h1         1 4DC       0.102367
     46 H23B         5.7010     0.5880    -0.7550 h1         1 4DC       0.102367
     47 N7          -2.8020    -0.5880     0.4980 ns         1 4DC      -0.483400
@<TRIPOS>BOND
     1     1     2 ar  
     2     1     6 ar  
     3     1     9 1   
     4     2     3 ar  
     5     2    25 1   
     6     3     4 ar  
     7     3    26 1   
     8     4     5 ar  
     9     4    21 1   
    10     5     6 ar  
    11     5    27 1   
    12     6    28 1   
    13     7     8 2   
    14     7     9 1   
    15     7    47 1   
    16     9    10 1   
    17     9    30 1   
    18    10    11 1   
    19    10    31 1   
    20    10    32 1   
    21    11    12 1   
    22    11    15 1   
    23    11    33 1   
    24    12    13 1   
    25    12    34 1   
    26    12    35 1   
    27    13    14 1   
    28    13    36 1   
    29    13    37 1   
    30    14    15 1   
    31    14    38 1   
    32    14    39 1   
    33    15    40 1   
    34    15    41 1   
    35    16    17 1   
    36    16    20 2   
    37    16    47 1   
    38    17    18 1   
    39    18    19 2   
    40    18    42 1   
    41    19    20 1   
    42    19    43 1   
    43    21    22 1   
    44    21    23 2   
    45    21    24 2   
    46    22    44 1   
    47    22    45 1   
    48    22    46 1   
    49    29    47 1   
@<TRIPOS>SUBSTRUCTURE
     1 4DC         1 TEMP              0 ****  ****    0 ROOT
