@<TRIPOS>MOLECULE
4DD
   26    26     1     0     0
SMALL
bcc


@<TRIPOS>ATOM
      1 C1           2.9180    -0.2860     0.1010 c3         1 4DD       0.159500
      2 C2           1.4460    -0.2440    -0.3250 c3         1 4DD      -0.115400
      3 C3           0.4920     0.1240     0.8130 c3         1 4DD      -0.032100
      4 N            3.4380     0.9730     0.6230 n8         1 4DD      -0.885800
      5 C            3.7970    -0.7420    -1.0560 c3         1 4DD      -0.084100
      6 C4          -0.9470     0.0690     0.3830 ca         1 4DD      -0.079300
      7 C5          -1.5280     1.1380    -0.2980 ca         1 4DD      -0.125500
      8 C6          -2.8450     1.0770    -0.7330 ca         1 4DD      -0.126000
      9 C7          -3.6070    -0.0600    -0.4930 ca         1 4DD      -0.129000
     10 C8          -3.0400    -1.1320     0.1840 ca         1 4DD      -0.126000
     11 C9          -1.7210    -1.0660     0.6150 ca         1 4DD      -0.125500
     12 H1           3.0100    -1.0240     0.9060 h1         1 4DD       0.056700
     13 H2           1.3290     0.4730    -1.1470 hc         1 4DD       0.047700
     14 H3           1.1610    -1.2220    -0.7240 hc         1 4DD       0.047700
     15 H4           0.6500    -0.5620     1.6500 hc         1 4DD       0.044200
     16 H5           0.7230     1.1280     1.1780 hc         1 4DD       0.044200
     17 H6           3.3100     1.7020    -0.0710 hn         1 4DD       0.336300
     18 H7           2.9030     1.2660     1.4310 hn         1 4DD       0.336300
     19 H9           3.7660    -0.0210    -1.8770 hc         1 4DD       0.038033
     20 H10          4.8360    -0.8420    -0.7410 hc         1 4DD       0.038033
     21 H11          3.4690    -1.7050    -1.4500 hc         1 4DD       0.038033
     22 H12         -0.9430     2.0310    -0.4870 ha         1 4DD       0.127500
     23 H13         -3.2780     1.9190    -1.2570 ha         1 4DD       0.130000
     24 H14         -4.6350    -0.1100    -0.8290 ha         1 4DD       0.130000
     25 H15         -3.6260    -2.0210     0.3810 ha         1 4DD       0.130000
     26 H16         -1.2870    -1.9060     1.1450 ha         1 4DD       0.127500
@<TRIPOS>BOND
     1     1     2 1   
     2     1     4 1   
     3     1     5 1   
     4     1    12 1   
     5     2     3 1   
     6     2    13 1   
     7     2    14 1   
     8     3     6 1   
     9     3    15 1   
    10     3    16 1   
    11     4    17 1   
    12     4    18 1   
    13     5    19 1   
    14     5    20 1   
    15     5    21 1   
    16     6     7 ar  
    17     6    11 ar  
    18     7     8 ar  
    19     7    22 1   
    20     8     9 ar  
    21     8    23 1   
    22     9    10 ar  
    23     9    24 1   
    24    10    11 ar  
    25    10    25 1   
    26    11    26 1   
@<TRIPOS>SUBSTRUCTURE
     1 4DD         1 TEMP              0 ****  ****    0 ROOT
