@<TRIPOS>MOLECULE
4DD
   26    26     1     0     0
SMALL
No Charge or Current Charge


@<TRIPOS>ATOM
      1 C1           2.9600    -0.2920     0.1100 c3         1 4DD       0.159500
      2 C2           1.4710    -0.2340    -0.3120 c3         1 4DD      -0.115400
      3 C3           0.4910     0.1350     0.8280 c3         1 4DD      -0.032100
      4 N            3.4330     1.0300     0.5520 n8         1 4DD      -0.996200
      5 C            3.8650    -0.8140    -1.0250 c3         1 4DD      -0.084100
      6 C4          -0.9610     0.0720     0.3730 ca         1 4DD      -0.079300
      7 C5          -1.5640     1.1920    -0.2340 ca         1 4DD      -0.107500
      8 C6          -2.9030     1.1330    -0.6580 ca         1 4DD      -0.108000
      9 C7          -3.6470    -0.0450    -0.4800 ca         1 4DD      -0.111000
     10 C8          -3.0500    -1.1660     0.1230 ca         1 4DD      -0.108000
     11 C9          -1.7110    -1.1070     0.5470 ca         1 4DD      -0.107500
     12 H1           3.0500    -0.9870     0.9580 h1         1 4DD       0.056700
     13 H2           1.3490     0.4760    -1.1390 hc         1 4DD       0.047700
     14 H3           1.1830    -1.2180    -0.7040 hc         1 4DD       0.047700
     15 H4           0.6490    -0.5470     1.6730 hc         1 4DD       0.044200
     16 H5           0.7170     1.1410     1.2010 hc         1 4DD       0.044200
     17 H6           3.2950     1.7010    -0.2110 hn         1 4DD       0.391500
     18 H7           2.8080     1.3740     1.2890 hn         1 4DD       0.391500
     19 H9           3.8090    -0.1630    -1.9060 hc         1 4DD       0.038033
     20 H10          4.9100    -0.8620    -0.6960 hc         1 4DD       0.038033
     21 H11          3.5600    -1.8230    -1.3250 hc         1 4DD       0.038033
     22 H12         -0.9940     2.1070    -0.3780 ha         1 4DD       0.109500
     23 H13         -3.3630     2.0010    -1.1260 ha         1 4DD       0.112000
     24 H14         -4.6830    -0.0900    -0.8080 ha         1 4DD       0.112000
     25 H15         -3.6250    -2.0790     0.2610 ha         1 4DD       0.112000
     26 H16         -1.2570    -1.9800     1.0100 ha         1 4DD       0.109500
@<TRIPOS>BOND
     1     1     2 1   
     2     1     4 1   
     3     1     5 1   
     4     1    12 1   
     5     2     3 1   
     6     2    13 1   
     7     2    14 1   
     8     3     6 1   
     9     3    15 1   
    10     3    16 1   
    11     4    17 1   
    12     4    18 1   
    13     5    19 1   
    14     5    20 1   
    15     5    21 1   
    16     6     7 ar  
    17     6    11 ar  
    18     7     8 ar  
    19     7    22 1   
    20     8     9 ar  
    21     8    23 1   
    22     9    10 ar  
    23     9    24 1   
    24    10    11 ar  
    25    10    25 1   
    26    11    26 1   
@<TRIPOS>SUBSTRUCTURE
     1 4DD         1 TEMP              0 ****  ****    0 ROOT
