@<TRIPOS>MOLECULE
4DE
   38    39     1     0     0
SMALL
No Charge or Current Charge


@<TRIPOS>ATOM
      1 O3          -1.5180     1.4150     3.1380 o          1 4DE      -0.516000
      2 C2          -0.7470     0.4660     3.0770 c          1 4DE       0.650700
      3 O4          -0.3020    -0.1830     4.1970 os         1 4DE      -0.446100
      4 C5          -0.7590     0.2700     5.4810 c3         1 4DE       0.168600
      5 C6          -0.1070    -0.6310     6.5420 c3         1 4DE      -0.097100
      6 C1          -0.2250    -0.0690     1.7950 cc         1 4DE      -0.282600
      7 C7           0.6690    -1.1580     1.5970 cc         1 4DE       0.319300
      8 C8           1.2760    -2.0050     2.6840 c3         1 4DE      -0.119400
      9 N9           0.9490    -1.3940     0.3300 nd         1 4DE      -0.524800
     10 N10          0.2060    -0.4200    -0.2950 na         1 4DE       0.228000
     11 C12         -0.5310     0.4190     0.5490 cd         1 4DE      -0.041300
     12 C13         -1.4280     1.5670     0.1280 c3         1 4DE      -0.042800
     13 C11          0.1280    -0.2030    -1.6690 ca         1 4DE      -0.038200
     14 C14         -0.8600    -0.8540    -2.4320 ca         1 4DE      -0.058000
     15 C15         -0.9450    -0.6320    -3.8190 ca         1 4DE      -0.169000
     16 C16         -0.0360     0.2450    -4.4510 ca         1 4DE       0.152100
     17 C19          0.9500     0.8890    -3.6860 ca         1 4DE      -0.169000
     18 C20          1.0360     0.6670    -2.3000 ca         1 4DE      -0.058000
     19 O17         -0.0700     0.5030    -5.8060 os         1 4DE      -0.336100
     20 C18         -1.0400    -0.1050    -6.6790 c3         1 4DE       0.146900
     21 H51         -1.8520     0.1950     5.5580 h1         1 4DE       0.046700
     22 H52         -0.4660     1.3140     5.6560 h1         1 4DE       0.046700
     23 H61         -0.4240    -0.3260     7.5460 hc         1 4DE       0.045367
     24 H62         -0.3980    -1.6770     6.3920 hc         1 4DE       0.045367
     25 H63          0.9860    -0.5600     6.4890 hc         1 4DE       0.045367
     26 H81          0.4980    -2.5120     3.2670 hc         1 4DE       0.053367
     27 H82          1.9310    -2.7790     2.2660 hc         1 4DE       0.053367
     28 H83          1.8810    -1.3950     3.3640 hc         1 4DE       0.053367
     29 H131        -2.4570     1.4000     0.4670 hc         1 4DE       0.064367
     30 H132        -1.0830     2.5100     0.5670 hc         1 4DE       0.064367
     31 H133        -1.4640     1.7100    -0.9580 hc         1 4DE       0.064367
     32 H14         -1.5620    -1.5310    -1.9490 ha         1 4DE       0.131000
     33 H15         -1.7180    -1.1470    -4.3820 ha         1 4DE       0.129000
     34 H19          1.6510     1.5630    -4.1710 ha         1 4DE       0.129000
     35 H20          1.8030     1.1720    -1.7170 ha         1 4DE       0.131000
     36 H181        -0.8890     0.2360    -7.7110 h1         1 4DE       0.043700
     37 H182        -0.9460    -1.1980    -6.6660 h1         1 4DE       0.043700
     38 H183        -2.0600     0.1660    -6.3770 h1         1 4DE       0.043700
@<TRIPOS>BOND
     1     1     2 2   
     2     2     3 1   
     3     2     6 1   
     4     3     4 1   
     5     4     5 1   
     6     4    21 1   
     7     4    22 1   
     8     5    23 1   
     9     5    24 1   
    10     5    25 1   
    11     6     7 1   
    12     6    11 2   
    13     7     8 1   
    14     7     9 2   
    15     8    26 1   
    16     8    27 1   
    17     8    28 1   
    18     9    10 1   
    19    10    11 1   
    20    10    13 1   
    21    11    12 1   
    22    12    29 1   
    23    12    30 1   
    24    12    31 1   
    25    13    14 ar  
    26    13    18 ar  
    27    14    15 ar  
    28    14    32 1   
    29    15    16 ar  
    30    15    33 1   
    31    16    17 ar  
    32    16    19 1   
    33    17    18 ar  
    34    17    34 1   
    35    18    35 1   
    36    19    20 1   
    37    20    36 1   
    38    20    37 1   
    39    20    38 1   
@<TRIPOS>SUBSTRUCTURE
     1 4DE         1 TEMP              0 ****  ****    0 ROOT
