@<TRIPOS>MOLECULE
4DE
   38    39     1     0     0
SMALL
bcc


@<TRIPOS>ATOM
      1 O3          -1.8890     1.1250     3.2220 o          1 4DE      -0.565000
      2 C2          -0.9450     0.3710     3.1200 c          1 4DE       0.699700
      3 O4          -0.3320    -0.1700     4.1650 os         1 4DE      -0.422900
      4 C5          -0.7960     0.1690     5.4790 c3         1 4DE       0.145400
      5 C6           0.0280    -0.6160     6.4700 c3         1 4DE      -0.097100
      6 C1          -0.3510    -0.0490     1.8590 cc         1 4DE      -0.347900
      7 C7           0.7180    -0.9520     1.6160 cc         1 4DE       0.384600
      8 C8           1.5460    -1.7370     2.5740 c3         1 4DE      -0.119400
      9 N9           0.9410    -1.0520     0.3270 nd         1 4DE      -0.524800
     10 N10          0.0490    -0.2410    -0.2700 na         1 4DE       0.177300
     11 C12         -0.7490     0.3960     0.6040 cd         1 4DE       0.009400
     12 C13         -1.7830     1.3800     0.1940 c3         1 4DE      -0.042800
     13 C11          0.0560    -0.1340    -1.6810 ca         1 4DE      -0.038200
     14 C14         -1.0880    -0.4010    -2.4140 ca         1 4DE      -0.076000
     15 C15         -1.0780    -0.2900    -3.7990 ca         1 4DE      -0.187000
     16 C16          0.0940     0.0720    -4.4570 ca         1 4DE       0.152100
     17 C19          1.2500     0.3250    -3.7120 ca         1 4DE      -0.187000
     18 C20          1.2290     0.2270    -2.3360 ca         1 4DE      -0.076000
     19 O17          0.2070     0.2000    -5.7890 os         1 4DE      -0.312900
     20 C18         -0.9330    -0.0400    -6.5910 c3         1 4DE       0.123700
     21 H51         -1.8560    -0.0740     5.5750 h1         1 4DE       0.046700
     22 H52         -0.6830     1.2430     5.6410 h1         1 4DE       0.046700
     23 H61         -0.2860    -0.3600     7.4810 hc         1 4DE       0.045367
     24 H62         -0.1060    -1.6900     6.3400 hc         1 4DE       0.045367
     25 H63          1.0900    -0.3860     6.3810 hc         1 4DE       0.045367
     26 H81          0.9320    -2.3920     3.1910 hc         1 4DE       0.053367
     27 H82          2.2590    -2.3510     2.0270 hc         1 4DE       0.053367
     28 H83          2.1000    -1.0860     3.2490 hc         1 4DE       0.053367
     29 H131        -2.7700     0.9160     0.1460 hc         1 4DE       0.064367
     30 H132        -1.8400     2.1940     0.9100 hc         1 4DE       0.064367
     31 H133        -1.5650     1.7970    -0.7880 hc         1 4DE       0.064367
     32 H14         -1.9980    -0.7110    -1.9170 ha         1 4DE       0.149000
     33 H15         -1.9900    -0.5030    -4.3400 ha         1 4DE       0.147000
     34 H19          2.1620     0.6090    -4.2210 ha         1 4DE       0.147000
     35 H20          2.1260     0.4360    -1.7670 ha         1 4DE       0.149000
     36 H181        -0.6240     0.1180    -7.6210 h1         1 4DE       0.043700
     37 H182        -1.2960    -1.0650    -6.4870 h1         1 4DE       0.043700
     38 H183        -1.7480     0.6500    -6.3580 h1         1 4DE       0.043700
@<TRIPOS>BOND
     1     1     2 2   
     2     2     3 1   
     3     2     6 1   
     4     3     4 1   
     5     4     5 1   
     6     4    21 1   
     7     4    22 1   
     8     5    23 1   
     9     5    24 1   
    10     5    25 1   
    11     6     7 1   
    12     6    11 2   
    13     7     8 1   
    14     7     9 2   
    15     8    26 1   
    16     8    27 1   
    17     8    28 1   
    18     9    10 1   
    19    10    11 1   
    20    10    13 1   
    21    11    12 1   
    22    12    29 1   
    23    12    30 1   
    24    12    31 1   
    25    13    14 ar  
    26    13    18 ar  
    27    14    15 ar  
    28    14    32 1   
    29    15    16 ar  
    30    15    33 1   
    31    16    17 ar  
    32    16    19 1   
    33    17    18 ar  
    34    17    34 1   
    35    18    35 1   
    36    19    20 1   
    37    20    36 1   
    38    20    37 1   
    39    20    38 1   
@<TRIPOS>SUBSTRUCTURE
     1 4DE         1 TEMP              0 ****  ****    0 ROOT
