@<TRIPOS>MOLECULE
4DF
   49    53     1     0     0
SMALL
abcg2


@<TRIPOS>ATOM
      1 C01          2.9620    -3.2180     0.3040 c3         1 4DF      -0.117100
      2 C05          2.9860    -2.0460     1.2700 c3         1 4DF       0.230800
      3 N08          2.9240    -0.7390     0.6080 nh         1 4DF      -0.796100
      4 C09          4.1220    -0.3210    -0.0210 ca         1 4DF       0.344000
      5 C10          4.2730    -0.3670    -1.3880 ca         1 4DF      -0.154000
      6 C12          5.4770     0.0370    -1.9990 ca         1 4DF      -0.062000
      7 C14          6.5560     0.4710    -1.2670 ca         1 4DF      -0.129000
      8 C16          6.4010     0.4970     0.1240 ca         1 4DF      -0.032200
      9 N17          7.2330     0.8820     1.1200 na         1 4DF      -0.060400
     10 N19          6.6690     0.7790     2.3230 nc         1 4DF      -0.513100
     11 C20          5.4560     0.3210     2.1370 cd         1 4DF       0.361800
     12 C22          5.2080     0.1100     0.7550 ca         1 4DF      -0.227900
     13 C23          1.7190    -0.2060     0.2810 ca         1 4DF       0.440900
     14 N24          0.6510    -0.9760     0.4440 nb         1 4DF      -0.327000
     15 C25         -0.5520    -0.4960     0.1510 ca         1 4DF       0.419900
     16 N26         -1.5710    -1.3750     0.3860 nu         1 4DF      -0.930900
     17 C28         -2.9400    -1.2410     0.2360 ca         1 4DF       0.315000
     18 C29         -3.7200    -2.3540     0.6070 ca         1 4DF      -0.128000
     19 C31         -5.0960    -2.3520     0.5110 ca         1 4DF      -0.069000
     20 C33         -5.7430    -1.2210     0.0290 ca         1 4DF      -0.074300
     21 C34         -7.2130    -1.0070    -0.1660 c5         1 4DF       0.253100
     22 N37         -7.3690     0.4210    -0.4380 n7         1 4DF      -0.868300
     23 S39         -5.9690     1.1590    -0.9380 sy         1 4DF       1.135600
     24 O40         -5.7600     2.3980    -0.2030 o          1 4DF      -0.528500
     25 O41         -5.8710     1.2560    -2.3900 o          1 4DF      -0.528500
     26 C42         -4.9640    -0.1430    -0.3220 ca         1 4DF      -0.241500
     27 C43         -3.5830    -0.1000    -0.2410 ca         1 4DF      -0.020000
     28 N45         -0.8140     0.7070    -0.3360 nb         1 4DF      -0.251000
     29 C46          0.2420     1.5040    -0.4700 ca         1 4DF       0.173900
     30 C48          1.5270     1.1270    -0.1650 ca         1 4DF      -0.089000
     31 CL           2.7730     2.3190    -0.2290 cl         1 4DF      -0.161000
     32 H1           2.0310    -3.2430    -0.2600 hc         1 4DF       0.045033
     33 H2           3.7930    -3.1700    -0.4000 hc         1 4DF       0.045033
     34 H3           3.0490    -4.1530     0.8570 hc         1 4DF       0.045033
     35 H4           2.1620    -2.1130     1.9780 h1         1 4DF       0.061700
     36 H5           3.9080    -2.0610     1.8530 h1         1 4DF       0.061700
     37 H6           3.4530    -0.7080    -2.0070 ha         1 4DF       0.125000
     38 H7           5.5500    -0.0040    -3.0780 ha         1 4DF       0.119000
     39 H8           7.4770     0.7820    -1.7420 ha         1 4DF       0.124000
     40 H9           8.1740     1.2310     1.0380 hn         1 4DF       0.378000
     41 H10          4.7950     0.1560     2.9740 h4         1 4DF       0.054800
     42 H11         -1.2540    -2.2620     0.7480 hn         1 4DF       0.510000
     43 H12         -3.2240    -3.2390     0.9870 ha         1 4DF       0.115000
     44 H13         -5.6570    -3.2270     0.8140 ha         1 4DF       0.121000
     45 H14         -7.5880    -1.6170    -0.9920 h1         1 4DF       0.066700
     46 H15         -7.7750    -1.2710     0.7300 h1         1 4DF       0.066700
     47 H16         -8.1770     0.6750    -0.9950 hn         1 4DF       0.487000
     48 H17         -3.0260     0.7760    -0.5320 ha         1 4DF       0.171000
     49 H18          0.0490     2.5100    -0.8240 h4         1 4DF       0.039100
@<TRIPOS>BOND
     1     1     2 1   
     2     1    32 1   
     3     1    33 1   
     4     1    34 1   
     5     2     3 1   
     6     2    35 1   
     7     2    36 1   
     8     3     4 1   
     9     3    13 1   
    10     4     5 ar  
    11     4    12 ar  
    12     5     6 ar  
    13     5    37 1   
    14     6     7 ar  
    15     6    38 1   
    16     7     8 ar  
    17     7    39 1   
    18     8     9 1   
    19     8    12 ar  
    20     9    10 1   
    21     9    40 1   
    22    10    11 2   
    23    11    12 1   
    24    11    41 1   
    25    13    14 ar  
    26    13    30 ar  
    27    14    15 ar  
    28    15    16 1   
    29    15    28 ar  
    30    16    17 1   
    31    16    42 1   
    32    17    18 ar  
    33    17    27 ar  
    34    18    19 ar  
    35    18    43 1   
    36    19    20 ar  
    37    19    44 1   
    38    20    21 1   
    39    20    26 ar  
    40    21    22 1   
    41    21    45 1   
    42    21    46 1   
    43    22    23 1   
    44    22    47 1   
    45    23    24 2   
    46    23    25 2   
    47    23    26 1   
    48    26    27 ar  
    49    27    48 1   
    50    28    29 ar  
    51    29    30 ar  
    52    29    49 1   
    53    30    31 1   
@<TRIPOS>SUBSTRUCTURE
     1 4DF         1 TEMP              0 ****  ****    0 ROOT
