@<TRIPOS>MOLECULE
4DF
   49    53     1     0     0
SMALL
No Charge or Current Charge


@<TRIPOS>ATOM
      1 C01          3.2410    -3.2460     0.6240 c3         1 4DF      -0.117100
      2 C05          3.1340    -2.0230     1.5540 c3         1 4DF       0.230800
      3 N08          2.9850    -0.7360     0.8280 nh         1 4DF      -0.796100
      4 C09          4.0380    -0.3170    -0.0090 ca         1 4DF       0.344000
      5 C10          3.8420    -0.1570    -1.3990 ca         1 4DF      -0.154000
      6 C12          4.9040     0.2580    -2.2400 ca         1 4DF      -0.062000
      7 C14          6.1780     0.5250    -1.6960 ca         1 4DF      -0.129000
      8 C16          6.3400     0.3620    -0.3150 ca         1 4DF      -0.032200
      9 N17          7.4510     0.5840     0.4750 na         1 4DF      -0.060400
     10 N19          7.1420     0.3420     1.8270 nc         1 4DF      -0.513100
     11 C20          5.8500    -0.0330     1.8230 cd         1 4DF       0.361800
     12 C22          5.3190    -0.0410     0.4840 ca         1 4DF      -0.227900
     13 C23          1.7100    -0.1190     0.7320 ca         1 4DF       0.440900
     14 N24          0.6520    -0.9510     0.6500 nb         1 4DF      -0.327000
     15 C25         -0.5560    -0.3900     0.5300 ca         1 4DF       0.419900
     16 N26         -1.5990    -1.2990     0.4780 nu         1 4DF      -0.930900
     17 C28         -2.9840    -1.2060     0.2680 ca         1 4DF       0.315000
     18 C29         -3.8030    -2.2480     0.7600 ca         1 4DF      -0.128000
     19 C31         -5.2020    -2.2280     0.5750 ca         1 4DF      -0.069000
     20 C33         -5.7850    -1.1550    -0.1180 ca         1 4DF      -0.074300
     21 C34         -7.2700    -0.9570    -0.4040 c5         1 4DF       0.253100
     22 N37         -7.3880     0.2580    -1.2660 n7         1 4DF      -0.868300
     23 S39         -5.9450     1.0660    -1.4720 sy         1 4DF       1.135600
     24 O40         -6.0230     2.3240    -0.7250 o          1 4DF      -0.528500
     25 O41         -5.6370     1.0040    -2.9010 o          1 4DF      -0.528500
     26 C42         -4.9790    -0.1370    -0.6090 ca         1 4DF      -0.241500
     27 C43         -3.5840    -0.1380    -0.4400 ca         1 4DF      -0.020000
     28 N45         -0.8360     0.9230     0.5040 nb         1 4DF      -0.251000
     29 C46          0.2130     1.7610     0.5910 ca         1 4DF       0.173900
     30 C48          1.5290     1.2870     0.7060 ca         1 4DF      -0.089000
     31 Cl           2.8520     2.4510     0.8660 cl         1 4DF      -0.161000
     32 H1           2.3530    -3.3260    -0.0140 hc         1 4DF       0.045033
     33 H2           4.1260    -3.1690    -0.0190 hc         1 4DF       0.045033
     34 H3           3.3260    -4.1650     1.2150 hc         1 4DF       0.045033
     35 H4           2.2880    -2.1770     2.2390 h1         1 4DF       0.061700
     36 H5           4.0240    -1.9940     2.1950 h1         1 4DF       0.061700
     37 H6           2.8670    -0.3640    -1.8310 ha         1 4DF       0.125000
     38 H7           4.7360     0.3740    -3.3090 ha         1 4DF       0.119000
     39 H8           7.0010     0.8530    -2.3280 ha         1 4DF       0.124000
     40 H9           8.3740     0.8880     0.1660 hn         1 4DF       0.378000
     41 H10          5.3650    -0.2560     2.7640 h4         1 4DF       0.054800
     42 H11         -1.2860    -2.2400     0.7120 hn         1 4DF       0.510000
     43 H12         -3.3540    -3.0790     1.2970 ha         1 4DF       0.115000
     44 H13         -5.8200    -3.0330     0.9660 ha         1 4DF       0.121000
     45 H14         -7.7050    -1.8410    -0.8920 h1         1 4DF       0.066700
     46 H15         -7.8070    -0.8070     0.5430 h1         1 4DF       0.066700
     47 H16         -7.5320    -0.0290    -2.2340 hn         1 4DF       0.487000
     48 H17         -2.9840     0.6590    -0.8660 ha         1 4DF       0.171000
     49 H18         -0.0070     2.8270     0.5770 h4         1 4DF       0.039100
@<TRIPOS>BOND
     1     1     2 1   
     2     1    32 1   
     3     1    33 1   
     4     1    34 1   
     5     2     3 1   
     6     2    35 1   
     7     2    36 1   
     8     3     4 1   
     9     3    13 1   
    10     4     5 ar  
    11     4    12 ar  
    12     5     6 ar  
    13     5    37 1   
    14     6     7 ar  
    15     6    38 1   
    16     7     8 ar  
    17     7    39 1   
    18     8     9 1   
    19     8    12 ar  
    20     9    10 1   
    21     9    40 1   
    22    10    11 2   
    23    11    12 1   
    24    11    41 1   
    25    13    14 ar  
    26    13    30 ar  
    27    14    15 ar  
    28    15    16 1   
    29    15    28 ar  
    30    16    17 1   
    31    16    42 1   
    32    17    18 ar  
    33    17    27 ar  
    34    18    19 ar  
    35    18    43 1   
    36    19    20 ar  
    37    19    44 1   
    38    20    21 1   
    39    20    26 ar  
    40    21    22 1   
    41    21    45 1   
    42    21    46 1   
    43    22    23 1   
    44    22    47 1   
    45    23    24 2   
    46    23    25 2   
    47    23    26 1   
    48    26    27 ar  
    49    27    48 1   
    50    28    29 ar  
    51    29    30 ar  
    52    29    49 1   
    53    30    31 1   
@<TRIPOS>SUBSTRUCTURE
     1 4DF         1 TEMP              0 ****  ****    0 ROOT
