@<TRIPOS>MOLECULE
4DH
   47    50     1     0     0
SMALL
No Charge or Current Charge


@<TRIPOS>ATOM
      1 C1           4.0850     3.5530     2.3580 ca         1 4DH      -0.111000
      2 C2           3.1840     4.3080     1.5720 ca         1 4DH      -0.141000
      3 C3           2.6020     3.7440     0.4160 ca         1 4DH      -0.063000
      4 C4           4.4090     2.2300     1.9920 ca         1 4DH      -0.111000
      5 N5           3.9590     0.4680     0.2830 na         1 4DH      -0.310600
      6 C6           3.8100     1.7070     0.8380 ca         1 4DH      -0.085200
      7 C7           2.9370     2.4250     0.0700 ca         1 4DH       0.075400
      8 N8           2.4840     1.6880    -1.0090 nc         1 4DH      -0.612100
      9 C9           3.1150     0.5100    -0.8330 cd         1 4DH       0.449800
     10 C10          2.9350    -0.6430    -1.7850 c3         1 4DH      -0.109700
     11 C11          2.1520    -1.8420    -1.1890 c3         1 4DH      -0.035300
     12 C12          2.0670    -3.0240    -2.2020 c          1 4DH       0.721000
     13 O13          1.2620    -2.9440    -3.1210 o          1 4DH      -0.710000
     14 O14          2.7500    -4.0160    -1.9890 o          1 4DH      -0.710000
     15 N15          0.7940    -1.4420    -0.7500 ns         1 4DH      -0.444900
     16 C16          0.4520    -1.0300     0.5200 c          1 4DH       0.635700
     17 C17         -0.9610    -0.6020     0.6590 cc         1 4DH      -0.195600
     18 O18          1.2540    -1.0280     1.4430 o          1 4DH      -0.625100
     19 N19         -1.6380    -0.1220     1.7770 na         1 4DH       0.176800
     20 N20         -2.9640     0.1810     1.5350 nc         1 4DH      -0.538800
     21 C21         -3.1210    -0.1040     0.2540 cd         1 4DH       0.280500
     22 C22         -1.9230    -0.5870    -0.3200 cd         1 4DH      -0.195000
     23 C23         -1.0790     0.0800     3.1230 c3         1 4DH       0.075900
     24 C24         -4.4230     0.0760    -0.4310 ca         1 4DH      -0.090500
     25 C25         -5.5950     0.3710     0.3040 ca         1 4DH      -0.095000
     26 C26         -6.8260     0.5590    -0.3490 ca         1 4DH      -0.120000
     27 C27         -6.9040     0.4640    -1.7460 ca         1 4DH      -0.122000
     28 C28         -5.7480     0.1850    -2.4910 ca         1 4DH      -0.120000
     29 C29         -4.5160    -0.0040    -1.8400 ca         1 4DH      -0.095000
     30 H1           4.5300     3.9930     3.2480 ha         1 4DH       0.100000
     31 H2           2.9380     5.3280     1.8590 ha         1 4DH       0.102000
     32 H3           1.9070     4.3160    -0.1940 ha         1 4DH       0.119000
     33 H4           5.1000     1.6370     2.5870 ha         1 4DH       0.110000
     34 H10          2.4230    -0.2970    -2.6910 hc         1 4DH       0.080200
     35 H10A         3.9220    -0.9920    -2.1100 hc         1 4DH       0.080200
     36 H11          2.7020    -2.2160    -0.3140 h1         1 4DH       0.055700
     37 HN15         0.0540    -1.4410    -1.4400 hn         1 4DH       0.321500
     38 H22         -1.8010    -0.8950    -1.3520 ha         1 4DH       0.159000
     39 H23         -0.2400     0.7840     3.0670 h1         1 4DH       0.061700
     40 H23A        -1.8450     0.4840     3.7940 h1         1 4DH       0.061700
     41 H23B        -0.7230    -0.8790     3.5170 h1         1 4DH       0.061700
     42 H25         -5.5600     0.4500     1.3890 ha         1 4DH       0.123500
     43 H26         -7.7190     0.7800     0.2310 ha         1 4DH       0.103000
     44 H27         -7.8560     0.6110    -2.2510 ha         1 4DH       0.100000
     45 H28         -5.8040     0.1170    -3.5750 ha         1 4DH       0.103000
     46 H29         -3.6360    -0.2080    -2.4440 ha         1 4DH       0.123500
     47 HN5          4.5090    -0.3160     0.6080 hn         1 4DH       0.360000
@<TRIPOS>BOND
     1     1     2 ar  
     2     1     4 ar  
     3     1    30 1   
     4     2     3 ar  
     5     2    31 1   
     6     3     7 ar  
     7     3    32 1   
     8     4     6 ar  
     9     4    33 1   
    10     5     6 1   
    11     5     9 1   
    12     5    47 1   
    13     6     7 ar  
    14     7     8 1   
    15     8     9 2   
    16     9    10 1   
    17    10    11 1   
    18    10    34 1   
    19    10    35 1   
    20    11    12 1   
    21    11    15 1   
    22    11    36 1   
    23    12    13 1   
    24    12    14 1   
    25    15    16 1   
    26    15    37 1   
    27    16    17 1   
    28    16    18 2   
    29    17    19 1   
    30    17    22 2   
    31    19    20 1   
    32    19    23 1   
    33    20    21 2   
    34    21    22 1   
    35    21    24 1   
    36    22    38 1   
    37    23    39 1   
    38    23    40 1   
    39    23    41 1   
    40    24    25 ar  
    41    24    29 ar  
    42    25    26 ar  
    43    25    42 1   
    44    26    27 ar  
    45    26    43 1   
    46    27    28 ar  
    47    27    44 1   
    48    28    29 ar  
    49    28    45 1   
    50    29    46 1   
@<TRIPOS>SUBSTRUCTURE
     1 4DH         1 TEMP              0 ****  ****    0 ROOT
