@<TRIPOS>MOLECULE
4DH
   47    50     1     0     0
SMALL
bcc


@<TRIPOS>ATOM
      1 C1           2.0710     4.2720     0.5640 ca         1 4DH      -0.129000
      2 C2           1.1380     4.2160    -0.4820 ca         1 4DH      -0.159000
      3 C3           1.0250     3.0950    -1.2870 ca         1 4DH      -0.081000
      4 C4           2.9160     3.2090     0.8390 ca         1 4DH      -0.129000
      5 N5           3.4310     0.8760     0.0080 na         1 4DH      -0.260300
      6 C6           2.7920     2.0870     0.0290 ca         1 4DH      -0.085200
      7 C7           1.8670     2.0150    -1.0270 ca         1 4DH       0.075400
      8 N8           1.9610     0.7930    -1.6500 nc         1 4DH      -0.612100
      9 C9           2.8960     0.1450    -1.0060 cd         1 4DH       0.449800
     10 C10          3.2800    -1.2700    -1.2530 c3         1 4DH      -0.109700
     11 C11          2.6250    -2.2100    -0.2260 c3         1 4DH      -0.035300
     12 C12          2.9240    -3.6960    -0.5560 c          1 4DH       0.931600
     13 O13          1.9610    -4.4740    -0.6160 o          1 4DH      -0.815300
     14 O14          4.1320    -3.9560    -0.7160 o          1 4DH      -0.815300
     15 N15          1.2210    -1.8990    -0.1480 ns         1 4DH      -0.511900
     16 C16          0.4990    -1.9770     0.9720 c          1 4DH       0.702700
     17 C17         -0.8500    -1.3730     0.8500 cc         1 4DH      -0.144900
     18 O18          0.9080    -2.4260     2.0340 o          1 4DH      -0.625100
     19 N19         -1.9210    -1.7500     1.5810 na         1 4DH       0.155400
     20 N20         -2.9700    -0.9810     1.3490 nc         1 4DH      -0.538800
     21 C21         -2.5870    -0.0760     0.4570 cd         1 4DH       0.345800
     22 C22         -1.2450    -0.2860     0.1010 cd         1 4DH      -0.278300
     23 C23         -2.0250    -2.8260     2.5430 c3         1 4DH       0.046600
     24 C24         -3.5020     0.9620    -0.0220 ca         1 4DH      -0.090500
     25 C25         -4.8700     0.8950     0.2490 ca         1 4DH      -0.113000
     26 C26         -5.7280     1.8850    -0.2030 ca         1 4DH      -0.138000
     27 C27         -5.2370     2.9590    -0.9360 ca         1 4DH      -0.140000
     28 C28         -3.8780     3.0350    -1.2100 ca         1 4DH      -0.138000
     29 C29         -3.0190     2.0460    -0.7560 ca         1 4DH      -0.113000
     30 H1           2.1310     5.1650     1.1710 ha         1 4DH       0.118000
     31 H2           0.4960     5.0680    -0.6610 ha         1 4DH       0.120000
     32 H3           0.3070     3.0550    -2.0970 ha         1 4DH       0.137000
     33 H4           3.6320     3.2520     1.6490 ha         1 4DH       0.128000
     34 H10          2.9620    -1.5350    -2.2630 hc         1 4DH       0.080200
     35 H10A         4.3610    -1.3970    -1.2060 hc         1 4DH       0.080200
     36 H11          3.0610    -2.0020     0.7560 h1         1 4DH       0.055700
     37 HN15         0.7520    -1.6340    -1.0010 hn         1 4DH       0.321500
     38 H22         -0.6350     0.2760    -0.5880 ha         1 4DH       0.177000
     39 H23         -1.5960    -2.5360     3.5000 h1         1 4DH       0.061700
     40 H23A        -3.0780    -3.0530     2.6740 h1         1 4DH       0.061700
     41 H23B        -1.5140    -3.7120     2.1790 h1         1 4DH       0.061700
     42 H25         -5.2650     0.0600     0.8130 ha         1 4DH       0.141500
     43 H26         -6.7860     1.8170     0.0150 ha         1 4DH       0.121000
     44 H27         -5.9090     3.7310    -1.2890 ha         1 4DH       0.118000
     45 H28         -3.4830     3.8700    -1.7740 ha         1 4DH       0.121000
     46 H29         -1.9600     2.1280    -0.9690 ha         1 4DH       0.141500
     47 HN5          4.1660     0.5750     0.6270 hn         1 4DH       0.309700
@<TRIPOS>BOND
     1     1     2 ar  
     2     1     4 ar  
     3     1    30 1   
     4     2     3 ar  
     5     2    31 1   
     6     3     7 ar  
     7     3    32 1   
     8     4     6 ar  
     9     4    33 1   
    10     5     6 1   
    11     5     9 1   
    12     5    47 1   
    13     6     7 ar  
    14     7     8 1   
    15     8     9 2   
    16     9    10 1   
    17    10    11 1   
    18    10    34 1   
    19    10    35 1   
    20    11    12 1   
    21    11    15 1   
    22    11    36 1   
    23    12    13 1   
    24    12    14 1   
    25    15    16 1   
    26    15    37 1   
    27    16    17 1   
    28    16    18 2   
    29    17    19 1   
    30    17    22 2   
    31    19    20 1   
    32    19    23 1   
    33    20    21 2   
    34    21    22 1   
    35    21    24 1   
    36    22    38 1   
    37    23    39 1   
    38    23    40 1   
    39    23    41 1   
    40    24    25 ar  
    41    24    29 ar  
    42    25    26 ar  
    43    25    42 1   
    44    26    27 ar  
    45    26    43 1   
    46    27    28 ar  
    47    27    44 1   
    48    28    29 ar  
    49    28    45 1   
    50    29    46 1   
@<TRIPOS>SUBSTRUCTURE
     1 4DH         1 TEMP              0 ****  ****    0 ROOT
