@<TRIPOS>MOLECULE
4DI
   28    27     1     0     0
SMALL
bcc


@<TRIPOS>ATOM
      1 C1          -3.7250     0.3670     0.0310 c2         1 4DI       0.661100
      2 S           -2.3820    -0.7750    -0.1660 ss         1 4DI      -0.286300
      3 C2          -0.9380     0.2900     0.0850 c3         1 4DI       0.027700
      4 C3           0.3230    -0.5510    -0.0520 c3         1 4DI      -0.072400
      5 C4           1.5770     0.2970     0.1230 c3         1 4DI      -0.075400
      6 C5           2.8390    -0.5410    -0.0250 c3         1 4DI       0.165800
      7 N1           4.0640     0.1870     0.2500 n3         1 4DI      -0.712600
      8 C6           5.1870    -0.7210     0.3540 c3         1 4DI       0.149600
      9 C7           4.3340     1.2140    -0.7340 c3         1 4DI       0.149600
     10 N2          -4.9320    -0.2450    -0.1450 nv         1 4DI      -0.952800
     11 N3          -3.4950     1.5970     0.2500 n2         1 4DI      -0.848100
     12 H21         -0.9980     0.7460     1.0730 h1         1 4DI       0.078200
     13 H22         -0.9590     1.0890    -0.6560 h1         1 4DI       0.078200
     14 H31          0.3410    -1.0320    -1.0350 hc         1 4DI       0.048700
     15 H32          0.3140    -1.3550     0.6900 hc         1 4DI       0.048700
     16 H41          1.5740     0.7690     1.1110 hc         1 4DI       0.050200
     17 H42          1.5600     1.1070    -0.6120 hc         1 4DI       0.050200
     18 H51          2.8570    -0.9980    -1.0320 h1         1 4DI       0.028700
     19 H52          2.7840    -1.3720     0.6860 h1         1 4DI       0.028700
     20 H61          6.0900    -0.1700     0.6190 h1         1 4DI       0.029867
     21 H62          5.0030    -1.4580     1.1370 h1         1 4DI       0.029867
     22 H63          5.3930    -1.2690    -0.5800 h1         1 4DI       0.029867
     23 H71          3.5500     1.9710    -0.7400 h1         1 4DI       0.029867
     24 H72          5.2690     1.7200    -0.4900 h1         1 4DI       0.029867
     25 H73          4.4260     0.8180    -1.7580 h1         1 4DI       0.029867
     26 HN21        -5.7480     0.2620     0.1620 hn         1 4DI       0.410300
     27 HN22        -5.0000    -1.2400    -0.0030 hn         1 4DI       0.410300
     28 HN3         -4.3620     2.1190     0.3470 hn         1 4DI       0.379400
@<TRIPOS>BOND
     1     1     2 1   
     2     1    10 1   
     3     1    11 2   
     4     2     3 1   
     5     3     4 1   
     6     3    12 1   
     7     3    13 1   
     8     4     5 1   
     9     4    14 1   
    10     4    15 1   
    11     5     6 1   
    12     5    16 1   
    13     5    17 1   
    14     6     7 1   
    15     6    18 1   
    16     6    19 1   
    17     7     8 1   
    18     7     9 1   
    19     8    20 1   
    20     8    21 1   
    21     8    22 1   
    22     9    23 1   
    23     9    24 1   
    24     9    25 1   
    25    10    26 1   
    26    10    27 1   
    27    11    28 1   
@<TRIPOS>SUBSTRUCTURE
     1 4DI         1 TEMP              0 ****  ****    0 ROOT
