@<TRIPOS>MOLECULE
4DI
   28    27     1     0     0
SMALL
No Charge or Current Charge


@<TRIPOS>ATOM
      1 C1          -3.8070     0.4010     0.0120 c2         1 4DI       0.661100
      2 S           -2.4880    -0.7710    -0.1370 ss         1 4DI      -0.334200
      3 C2          -0.9890     0.2960     0.0400 c3         1 4DI       0.075600
      4 C3           0.2920    -0.5540    -0.0640 c3         1 4DI      -0.072400
      5 C4           1.5830     0.2820     0.0770 c3         1 4DI      -0.075400
      6 C5           2.8670    -0.5740    -0.0290 c3         1 4DI       0.165800
      7 N1           4.1300     0.1560     0.2480 n3         1 4DI      -0.712600
      8 C6           5.2860    -0.7620     0.3680 c3         1 4DI       0.149600
      9 C7           4.4050     1.2640    -0.6980 c3         1 4DI       0.149600
     10 N2          -5.0110    -0.1780    -0.0950 nv         1 4DI      -1.063200
     11 N3          -3.6650     1.6370     0.1990 n2         1 4DI      -0.848100
     12 H21         -1.0220     0.8040     1.0140 h1         1 4DI       0.078200
     13 H22         -0.9960     1.0590    -0.7490 h1         1 4DI       0.078200
     14 H31          0.3000    -1.0730    -1.0300 hc         1 4DI       0.048700
     15 H32          0.2730    -1.3260     0.7160 hc         1 4DI       0.048700
     16 H41          1.5760     0.7970     1.0460 hc         1 4DI       0.050200
     17 H42          1.5880     1.0540    -0.7020 hc         1 4DI       0.050200
     18 H51          2.9080    -1.0240    -1.0310 h1         1 4DI       0.028700
     19 H52          2.7700    -1.4020     0.6880 h1         1 4DI       0.028700
     20 H61          6.1920    -0.2110     0.6550 h1         1 4DI       0.029867
     21 H62          5.0990    -1.5250     1.1360 h1         1 4DI       0.029867
     22 H63          5.4810    -1.2730    -0.5850 h1         1 4DI       0.029867
     23 H71          3.6170     2.0270    -0.6570 h1         1 4DI       0.029867
     24 H72          5.3520     1.7600    -0.4490 h1         1 4DI       0.029867
     25 H73          4.4740     0.8910    -1.7290 h1         1 4DI       0.029867
     26 HN21        -5.7060     0.2000     0.5390 hn         1 4DI       0.465500
     27 HN22        -4.9630    -1.1900    -0.0980 hn         1 4DI       0.465500
     28 HN3         -4.5990     2.0610     0.2050 hn         1 4DI       0.379400
@<TRIPOS>BOND
     1     1     2 1   
     2     1    10 1   
     3     1    11 2   
     4     2     3 1   
     5     3     4 1   
     6     3    12 1   
     7     3    13 1   
     8     4     5 1   
     9     4    14 1   
    10     4    15 1   
    11     5     6 1   
    12     5    16 1   
    13     5    17 1   
    14     6     7 1   
    15     6    18 1   
    16     6    19 1   
    17     7     8 1   
    18     7     9 1   
    19     8    20 1   
    20     8    21 1   
    21     8    22 1   
    22     9    23 1   
    23     9    24 1   
    24     9    25 1   
    25    10    26 1   
    26    10    27 1   
    27    11    28 1   
@<TRIPOS>SUBSTRUCTURE
     1 4DI         1 TEMP              0 ****  ****    0 ROOT
