@<TRIPOS>MOLECULE
4DJ
   53    57     1     0     0
SMALL
abcg2


@<TRIPOS>ATOM
      1 C01         40.9570    40.1120    32.2190 c3         1 4DJ       0.084900
      2 N05         39.7030    39.4060    32.0670 na         1 4DJ       0.061600
      3 N06         39.5620    38.4090    31.1600 nc         1 4DJ      -0.518100
      4 C07         38.3090    37.9880    31.2370 cd         1 4DJ       0.350800
      5 C09         37.5880    38.7230    32.2180 ca         1 4DJ      -0.206900
      6 C10         36.2750    38.7030    32.7110 ca         1 4DJ      -0.060000
      7 C12         35.9320    39.6060    33.7050 ca         1 4DJ       0.276000
      8 N13         34.6620    39.6620    34.3010 nu         1 4DJ      -0.939900
      9 C15         33.4460    39.2430    33.8320 ca         1 4DJ       0.414900
     10 N16         32.4410    39.3280    34.7220 nb         1 4DJ      -0.274000
     11 C17         31.2490    38.9220    34.2680 ca         1 4DJ       0.164900
     12 C19         31.0290    38.4430    32.9960 ca         1 4DJ      -0.320000
     13 C21         32.1490    38.4110    32.1380 ca         1 4DJ       0.421900
     14 N22         33.3510    38.8120    32.5740 nb         1 4DJ      -0.313000
     15 N23         32.0580    38.0120    30.8370 nh         1 4DJ      -0.818100
     16 C24         33.2180    38.0900    29.9430 c3         1 4DJ       0.239800
     17 C27         34.0910    36.8380    29.9940 c3         1 4DJ      -0.108400
     18 C30         35.3070    36.9800    29.1020 c3         1 4DJ       0.162600
     19 O33         36.1110    35.8030    29.2420 oh         1 4DJ      -0.669000
     20 C35         30.9100    37.3170    30.3610 ca         1 4DJ       0.348000
     21 C36         30.1240    37.8450    29.3560 ca         1 4DJ      -0.150000
     22 C38         29.0110    37.1390    28.8520 ca         1 4DJ      -0.065000
     23 C40         28.6510    35.8980    29.3390 ca         1 4DJ      -0.133000
     24 C42         29.4510    35.3650    30.3570 ca         1 4DJ      -0.024200
     25 N43         29.3960    34.1840    31.0320 na         1 4DJ      -0.075400
     26 N45         30.3990    34.0630    31.9340 nc         1 4DJ      -0.508100
     27 C46         31.1150    35.1700    31.8520 cd         1 4DJ       0.368800
     28 C48         30.5770    36.0490    30.8700 ca         1 4DJ      -0.244900
     29 C49         36.9030    40.5140    34.2100 ca         1 4DJ      -0.114000
     30 C51         38.1990    40.5420    33.7460 ca         1 4DJ      -0.105000
     31 C53         38.5360    39.6350    32.7330 ca         1 4DJ      -0.057200
     32 H02         41.7000    39.6120    31.6030 h1         1 4DJ       0.052700
     33 H04         40.8570    41.1510    31.8970 h1         1 4DJ       0.052700
     34 H03         41.2770    40.0920    33.2610 h1         1 4DJ       0.052700
     35 H08         37.9640    37.1820    30.6080 h4         1 4DJ       0.053800
     36 H11         35.5480    38.0080    32.3270 ha         1 4DJ       0.147000
     37 H14         34.6180    40.0760    35.2200 hn         1 4DJ       0.510000
     38 H18         30.4240    38.9880    34.9700 h4         1 4DJ       0.020100
     39 H20         30.0480    38.1300    32.6760 ha         1 4DJ       0.142000
     40 H26         33.8000    38.9650    30.2240 h1         1 4DJ       0.062700
     41 H25         32.8390    38.2450    28.9330 h1         1 4DJ       0.062700
     42 H28         33.5080    35.9670    29.6840 hc         1 4DJ       0.064200
     43 H29         34.4140    36.6660    31.0230 hc         1 4DJ       0.064200
     44 H32         35.8830    37.8670    29.3910 h1         1 4DJ       0.023200
     45 H31         34.9990    37.1060    28.0580 h1         1 4DJ       0.023200
     46 H34         36.8760    35.8860    28.6590 ho         1 4DJ       0.442000
     47 H37         30.3670    38.8190    28.9520 ha         1 4DJ       0.126000
     48 H39         28.4220    37.5920    28.0650 ha         1 4DJ       0.119000
     49 H41         27.7960    35.3620    28.9510 ha         1 4DJ       0.124000
     50 H44         28.7240    33.4410    30.9280 hn         1 4DJ       0.378000
     51 H47         31.9800    35.3090    32.4800 h4         1 4DJ       0.058800
     52 H50         36.6020    41.2050    34.9890 ha         1 4DJ       0.113000
     53 H52         38.9180    41.2420    34.1490 ha         1 4DJ       0.120000
@<TRIPOS>BOND
     1     1     2 1   
     2     1    32 1   
     3     1    33 1   
     4     1    34 1   
     5     2     3 1   
     6     2    31 1   
     7     3     4 2   
     8     4     5 1   
     9     4    35 1   
    10     5     6 ar  
    11     5    31 ar  
    12     6     7 ar  
    13     6    36 1   
    14     7     8 1   
    15     7    29 ar  
    16     8     9 1   
    17     8    37 1   
    18     9    10 ar  
    19     9    14 ar  
    20    10    11 ar  
    21    11    12 ar  
    22    11    38 1   
    23    12    13 ar  
    24    12    39 1   
    25    13    14 ar  
    26    13    15 1   
    27    15    16 1   
    28    15    20 1   
    29    16    17 1   
    30    16    40 1   
    31    16    41 1   
    32    17    18 1   
    33    17    42 1   
    34    17    43 1   
    35    18    19 1   
    36    18    44 1   
    37    18    45 1   
    38    19    46 1   
    39    20    21 ar  
    40    20    28 ar  
    41    21    22 ar  
    42    21    47 1   
    43    22    23 ar  
    44    22    48 1   
    45    23    24 ar  
    46    23    49 1   
    47    24    25 1   
    48    24    28 ar  
    49    25    26 1   
    50    25    50 1   
    51    26    27 2   
    52    27    28 1   
    53    27    51 1   
    54    29    30 ar  
    55    29    52 1   
    56    30    31 ar  
    57    30    53 1   
@<TRIPOS>SUBSTRUCTURE
     1 4DJ         1 TEMP              0 ****  ****    0 ROOT
