@<TRIPOS>MOLECULE
4DJ
   53    57     1     0     0
SMALL
No Charge or Current Charge


@<TRIPOS>ATOM
      1 C01         41.0140    39.9010    32.4130 c3         1 4DJ       0.084900
      2 N05         39.7680    39.1420    32.2250 na         1 4DJ       0.061600
      3 N06         39.6520    38.0250    31.3910 nc         1 4DJ      -0.518100
      4 C07         38.3670    37.6490    31.5160 cd         1 4DJ       0.350800
      5 C09         37.6590    38.5210    32.4280 ca         1 4DJ      -0.206900
      6 C10         36.3310    38.5260    32.8760 ca         1 4DJ      -0.060000
      7 C12         35.9380    39.5370    33.7880 ca         1 4DJ       0.276000
      8 N13         34.6300    39.6230    34.2900 nu         1 4DJ      -0.939900
      9 C15         33.3840    39.2650    33.8000 ca         1 4DJ       0.414900
     10 N16         32.3700    39.4100    34.6660 nb         1 4DJ      -0.274000
     11 C17         31.1460    39.0840    34.2130 ca         1 4DJ       0.164900
     12 C19         30.9520    38.6210    32.9050 ca         1 4DJ      -0.320000
     13 C21         32.0790    38.5070    32.0760 ca         1 4DJ       0.421900
     14 N22         33.3000    38.8370    32.5320 nb         1 4DJ      -0.313000
     15 N23         31.9770    38.0430    30.7430 nh         1 4DJ      -0.818100
     16 C24         33.0690    38.2970    29.7670 c3         1 4DJ       0.239800
     17 C27         34.0610    37.1230    29.6470 c3         1 4DJ      -0.108400
     18 C30         35.2380    37.4390    28.7080 c3         1 4DJ       0.162600
     19 O33         36.1190    36.3130    28.6480 oh         1 4DJ      -0.669000
     20 C35         30.8990    37.2340    30.3310 ca         1 4DJ       0.348000
     21 C36         30.0950    37.5790    29.2220 ca         1 4DJ      -0.150000
     22 C38         29.0220    36.7460    28.8170 ca         1 4DJ      -0.065000
     23 C40         28.7460    35.5520    29.5170 ca         1 4DJ      -0.133000
     24 C42         29.5650    35.2360    30.6070 ca         1 4DJ      -0.024200
     25 N43         29.5380    34.1410    31.4480 na         1 4DJ      -0.075400
     26 N45         30.5760    34.2280    32.3960 nc         1 4DJ      -0.508100
     27 C46         31.2070    35.3820    32.1100 cd         1 4DJ       0.368800
     28 C48         30.5890    36.0410    30.9900 ca         1 4DJ      -0.244900
     29 C49         36.9000    40.4790    34.2350 ca         1 4DJ      -0.114000
     30 C51         38.2330    40.4400    33.7640 ca         1 4DJ      -0.105000
     31 C53         38.5690    39.4350    32.8470 ca         1 4DJ      -0.057200
     32 H02         41.8120    39.4660    31.7990 h1         1 4DJ       0.052700
     33 H04         40.8560    40.9440    32.1140 h1         1 4DJ       0.052700
     34 H03         41.3090    39.8650    33.4680 h1         1 4DJ       0.052700
     35 H08         38.0100    36.7890    30.9640 h4         1 4DJ       0.053800
     36 H11         35.6370    37.7620    32.5430 ha         1 4DJ       0.147000
     37 H14         34.5580    40.1420    35.1650 hn         1 4DJ       0.510000
     38 H18         30.3140    39.1990    34.9060 h4         1 4DJ       0.020100
     39 H20         29.9570    38.3720    32.5520 ha         1 4DJ       0.142000
     40 H26         33.6190    39.2100    30.0350 h1         1 4DJ       0.062700
     41 H25         32.6440    38.4990    28.7740 h1         1 4DJ       0.062700
     42 H28         33.5280    36.2390    29.2800 hc         1 4DJ       0.064200
     43 H29         34.4500    36.8750    30.6410 hc         1 4DJ       0.064200
     44 H32         35.7740    38.3220    29.0810 h1         1 4DJ       0.023200
     45 H31         34.8500    37.6740    27.7080 h1         1 4DJ       0.023200
     46 H34         36.8090    36.5250    27.9790 ho         1 4DJ       0.442000
     47 H37         30.2920    38.4990    28.6800 ha         1 4DJ       0.126000
     48 H39         28.4080    37.0280    27.9640 ha         1 4DJ       0.119000
     49 H41         27.9290    34.9000    29.2160 ha         1 4DJ       0.124000
     50 H44         28.8830    33.3600    31.4190 hn         1 4DJ       0.378000
     51 H47         32.0620    35.6790    32.7050 h4         1 4DJ       0.058800
     52 H50         36.6110    41.2520    34.9430 ha         1 4DJ       0.113000
     53 H52         38.9670    41.1670    34.1030 ha         1 4DJ       0.120000
@<TRIPOS>BOND
     1     1     2 1   
     2     1    32 1   
     3     1    33 1   
     4     1    34 1   
     5     2     3 1   
     6     2    31 1   
     7     3     4 2   
     8     4     5 1   
     9     4    35 1   
    10     5     6 ar  
    11     5    31 ar  
    12     6     7 ar  
    13     6    36 1   
    14     7     8 1   
    15     7    29 ar  
    16     8     9 1   
    17     8    37 1   
    18     9    10 ar  
    19     9    14 ar  
    20    10    11 ar  
    21    11    12 ar  
    22    11    38 1   
    23    12    13 ar  
    24    12    39 1   
    25    13    14 ar  
    26    13    15 1   
    27    15    16 1   
    28    15    20 1   
    29    16    17 1   
    30    16    40 1   
    31    16    41 1   
    32    17    18 1   
    33    17    42 1   
    34    17    43 1   
    35    18    19 1   
    36    18    44 1   
    37    18    45 1   
    38    19    46 1   
    39    20    21 ar  
    40    20    28 ar  
    41    21    22 ar  
    42    21    47 1   
    43    22    23 ar  
    44    22    48 1   
    45    23    24 ar  
    46    23    49 1   
    47    24    25 1   
    48    24    28 ar  
    49    25    26 1   
    50    25    50 1   
    51    26    27 2   
    52    27    28 1   
    53    27    51 1   
    54    29    30 ar  
    55    29    52 1   
    56    30    31 ar  
    57    30    53 1   
@<TRIPOS>SUBSTRUCTURE
     1 4DJ         1 TEMP              0 ****  ****    0 ROOT
