@<TRIPOS>MOLECULE
4DK
   56    60     1     0     0
SMALL
No Charge or Current Charge


@<TRIPOS>ATOM
      1 C01          8.2920    -0.9050    -0.1990 c3         1 4DK      -0.114400
      2 C05          7.3330     0.2360     0.0100 cc         1 4DK       0.254300
      3 N06          7.8110     1.5100     0.1410 nc         1 4DK      -0.685000
      4 C07          6.7190     2.2520     0.3080 cd         1 4DK       0.434900
      5 O09          5.5420     1.5520     0.2970 os         1 4DK      -0.250000
      6 C10          5.9600     0.2720     0.1060 cd         1 4DK       0.158500
      7 C11          4.9060    -0.7770     0.0390 ca         1 4DK      -0.090500
      8 C12          5.2100    -2.1420    -0.1640 ca         1 4DK      -0.126000
      9 C14          4.1920    -3.1070    -0.2090 ca         1 4DK      -0.083000
     10 C16          2.8510    -2.7250    -0.0600 ca         1 4DK      -0.164000
     11 C18          2.5150    -1.3770     0.1240 ca         1 4DK       0.324000
     12 N19          1.1640    -1.0480     0.2780 nu         1 4DK      -0.930900
     13 C21          0.4000     0.0840     0.0380 ca         1 4DK       0.419900
     14 N22          0.9660     1.1290    -0.5890 nb         1 4DK      -0.258000
     15 C23          0.1750     2.1930    -0.8120 ca         1 4DK       0.165900
     16 C25         -1.1680     2.1980    -0.4110 ca         1 4DK      -0.329000
     17 C27         -1.6620     1.0530     0.2340 ca         1 4DK       0.427900
     18 N28         -0.8680    -0.0110     0.4540 nb         1 4DK      -0.311000
     19 N29         -3.0020     0.9480     0.6680 nh         1 4DK      -0.813100
     20 C30         -3.7710     2.1620     1.0290 c3         1 4DK       0.234800
     21 C33         -4.7860     2.5780    -0.0530 c3         1 4DK      -0.115400
     22 C36         -5.5590     3.8530     0.3240 c3         1 4DK       0.167600
     23 O39         -6.4810     4.1810    -0.7180 oh         1 4DK      -0.657000
     24 C41         -3.6540    -0.3040     0.7360 ca         1 4DK       0.368000
     25 C42         -4.2950    -0.7460     1.9160 ca         1 4DK      -0.156000
     26 C44         -4.9570    -1.9990     1.9570 ca         1 4DK      -0.066000
     27 C46         -4.9930    -2.8220     0.8110 ca         1 4DK      -0.134000
     28 C48         -4.3540    -2.3540    -0.3430 ca         1 4DK      -0.033200
     29 N49         -4.2480    -2.9330    -1.5930 na         1 4DK      -0.063400
     30 N51         -3.5340    -2.0860    -2.4620 nc         1 4DK      -0.516100
     31 C52         -3.2180    -1.0120    -1.7140 cd         1 4DK       0.367800
     32 C54         -3.7190    -1.1550    -0.3720 ca         1 4DK      -0.227900
     33 C55          3.5430    -0.4160     0.1860 ca         1 4DK      -0.118000
     34 H02          8.1000    -1.4060    -1.1540 hc         1 4DK       0.050033
     35 H04          9.3310    -0.5540    -0.2140 hc         1 4DK       0.050033
     36 H03          8.2060    -1.6400     0.6090 hc         1 4DK       0.050033
     37 H08          6.6710     3.3260     0.4480 h5         1 4DK       0.081100
     38 H13          6.2320    -2.4810    -0.2850 ha         1 4DK       0.120000
     39 H15          4.4440    -4.1550    -0.3610 ha         1 4DK       0.114000
     40 H17          2.0720    -3.4820    -0.0990 ha         1 4DK       0.113000
     41 H20          0.5840    -1.8380     0.5520 hn         1 4DK       0.511000
     42 H24          0.6210     3.0450    -1.3220 h4         1 4DK       0.020100
     43 H26         -1.7930     3.0600    -0.6170 ha         1 4DK       0.134000
     44 H32         -4.3080     1.9970     1.9720 h1         1 4DK       0.056200
     45 H31         -3.0900     3.0000     1.2280 h1         1 4DK       0.056200
     46 H34         -4.2580     2.7410    -1.0000 hc         1 4DK       0.067200
     47 H35         -5.4970     1.7590    -0.2140 hc         1 4DK       0.067200
     48 H38         -6.0950     3.6870     1.2680 h1         1 4DK       0.015200
     49 H37         -4.8490     4.6770     0.4770 h1         1 4DK       0.015200
     50 H40         -6.9510     4.9980    -0.4380 ho         1 4DK       0.445000
     51 H43         -4.2690    -0.1280     2.8070 ha         1 4DK       0.121000
     52 H45         -5.4410    -2.3260     2.8750 ha         1 4DK       0.116000
     53 H47         -5.5020    -3.7840     0.8260 ha         1 4DK       0.122000
     54 H50         -4.6210    -3.8360    -1.8850 hn         1 4DK       0.376000
     55 H53         -2.6620    -0.1990    -2.1640 h4         1 4DK       0.053800
     56 H56          3.2790     0.6190     0.3710 ha         1 4DK       0.163000
@<TRIPOS>BOND
     1     1     2 1   
     2     1    34 1   
     3     1    35 1   
     4     1    36 1   
     5     2     3 1   
     6     2     6 2   
     7     3     4 2   
     8     4     5 1   
     9     4    37 1   
    10     5     6 1   
    11     6     7 1   
    12     7     8 ar  
    13     7    33 ar  
    14     8     9 ar  
    15     8    38 1   
    16     9    10 ar  
    17     9    39 1   
    18    10    11 ar  
    19    10    40 1   
    20    11    12 1   
    21    11    33 ar  
    22    12    13 1   
    23    12    41 1   
    24    13    14 ar  
    25    13    18 ar  
    26    14    15 ar  
    27    15    16 ar  
    28    15    42 1   
    29    16    17 ar  
    30    16    43 1   
    31    17    18 ar  
    32    17    19 1   
    33    19    20 1   
    34    19    24 1   
    35    20    21 1   
    36    20    44 1   
    37    20    45 1   
    38    21    22 1   
    39    21    46 1   
    40    21    47 1   
    41    22    23 1   
    42    22    48 1   
    43    22    49 1   
    44    23    50 1   
    45    24    25 ar  
    46    24    32 ar  
    47    25    26 ar  
    48    25    51 1   
    49    26    27 ar  
    50    26    52 1   
    51    27    28 ar  
    52    27    53 1   
    53    28    29 1   
    54    28    32 ar  
    55    29    30 1   
    56    29    54 1   
    57    30    31 2   
    58    31    32 1   
    59    31    55 1   
    60    33    56 1   
@<TRIPOS>SUBSTRUCTURE
     1 4DK         1 TEMP              0 ****  ****    0 ROOT
