@<TRIPOS>MOLECULE
4DK
   56    60     1     0     0
SMALL
bcc


@<TRIPOS>ATOM
      1 C01          8.0180    -0.8490     0.1920 c3         1 4DK      -0.114400
      2 C05          7.0990     0.2290    -0.2600 cc         1 4DK       0.254300
      3 N06          7.5640     1.4980    -0.5450 nc         1 4DK      -0.685000
      4 C07          6.5210     2.1720    -0.8720 cd         1 4DK       0.479300
      5 O09          5.3900     1.4700    -0.8360 os         1 4DK      -0.338800
      6 C10          5.7510     0.2150    -0.4480 cd         1 4DK       0.202900
      7 C11          4.7060    -0.7860    -0.3050 ca         1 4DK      -0.090500
      8 C12          5.0170    -2.1410    -0.4170 ca         1 4DK      -0.144000
      9 C14          4.0100    -3.0820    -0.2540 ca         1 4DK      -0.101000
     10 C16          2.7090    -2.6920    -0.0020 ca         1 4DK      -0.182000
     11 C18          2.3810    -1.3330     0.0960 ca         1 4DK       0.185600
     12 N19          1.0500    -1.0380     0.3500 nu         1 4DK      -0.737300
     13 C21          0.3750     0.1470     0.4240 ca         1 4DK       0.945900
     14 N22          1.0230     1.2930     0.2610 nb         1 4DK      -0.784000
     15 C23          0.2620     2.3860     0.3380 ca         1 4DK       0.494200
     16 C25         -1.0910     2.3710     0.5640 ca         1 4DK      -0.477600
     17 C27         -1.6750     1.0960     0.7290 ca         1 4DK       0.756200
     18 N28         -0.9260     0.0020     0.6630 nb         1 4DK      -0.837000
     19 N29         -2.9990     0.9230     0.9750 nh         1 4DK      -0.674700
     20 C30         -3.9060     2.0550     1.1040 c3         1 4DK       0.234800
     21 C33         -4.4140     2.5650    -0.2390 c3         1 4DK      -0.115400
     22 C36         -5.3670     3.7310    -0.0580 c3         1 4DK       0.144400
     23 O39         -5.7970     4.1660    -1.3290 oh         1 4DK      -0.594800
     24 C41         -3.5790    -0.3670     0.9040 ca         1 4DK       0.229600
     25 C42         -4.2210    -0.9100     1.9940 ca         1 4DK      -0.174000
     26 C44         -4.8620    -2.1630     1.9160 ca         1 4DK      -0.084000
     27 C46         -4.8710    -2.9060     0.7600 ca         1 4DK      -0.152000
     28 C48         -4.2140    -2.3510    -0.3450 ca         1 4DK      -0.033200
     29 N49         -4.0470    -2.7970    -1.6120 na         1 4DK      -0.013100
     30 N51         -3.3640    -1.9360    -2.3670 nc         1 4DK      -0.516100
     31 C52         -3.0680    -0.9130    -1.6060 cd         1 4DK       0.367800
     32 C54         -3.5780    -1.1000    -0.2940 ca         1 4DK      -0.227900
     33 C55          3.3910    -0.3840    -0.0540 ca         1 4DK      -0.136000
     34 H02          8.3980    -1.4350    -0.6480 hc         1 4DK       0.050033
     35 H04          8.8770    -0.4180     0.7050 hc         1 4DK       0.050033
     36 H03          7.5250    -1.5380     0.8770 hc         1 4DK       0.050033
     37 H08          6.4580     3.2090    -1.1650 h5         1 4DK       0.081100
     38 H13          6.0200    -2.4650    -0.6560 ha         1 4DK       0.138000
     39 H15          4.2410    -4.1350    -0.3410 ha         1 4DK       0.132000
     40 H17          1.9350    -3.4420     0.1130 ha         1 4DK       0.131000
     41 H20          0.4470    -1.8380     0.4670 hn         1 4DK       0.455800
     42 H24          0.7730     3.3320     0.2000 h4         1 4DK       0.020100
     43 H26         -1.6510     3.2920     0.5920 ha         1 4DK       0.152000
     44 H32         -4.7450     1.7350     1.7220 h1         1 4DK       0.056200
     45 H31         -3.4110     2.8510     1.6640 h1         1 4DK       0.056200
     46 H34         -3.5710     2.8770    -0.8620 hc         1 4DK       0.067200
     47 H35         -4.9210     1.7520    -0.7660 hc         1 4DK       0.067200
     48 H38         -6.2130     3.4150     0.5660 h1         1 4DK       0.015200
     49 H37         -4.8550     4.5340     0.4890 h1         1 4DK       0.015200
     50 H40         -6.3830     4.9180    -1.2070 ho         1 4DK       0.406000
     51 H43         -4.2370    -0.3650     2.9300 ha         1 4DK       0.139000
     52 H45         -5.3570    -2.5470     2.7980 ha         1 4DK       0.134000
     53 H47         -5.3640    -3.8670     0.7060 ha         1 4DK       0.140000
     54 H50         -4.3810    -3.6580    -2.0120 hn         1 4DK       0.325700
     55 H53         -2.5090    -0.0790    -2.0010 h4         1 4DK       0.053800
     56 H56          3.1480     0.6620     0.0370 ha         1 4DK       0.181000
@<TRIPOS>BOND
     1     1     2 1   
     2     1    34 1   
     3     1    35 1   
     4     1    36 1   
     5     2     3 1   
     6     2     6 2   
     7     3     4 2   
     8     4     5 1   
     9     4    37 1   
    10     5     6 1   
    11     6     7 1   
    12     7     8 ar  
    13     7    33 ar  
    14     8     9 ar  
    15     8    38 1   
    16     9    10 ar  
    17     9    39 1   
    18    10    11 ar  
    19    10    40 1   
    20    11    12 1   
    21    11    33 ar  
    22    12    13 1   
    23    12    41 1   
    24    13    14 ar  
    25    13    18 ar  
    26    14    15 ar  
    27    15    16 ar  
    28    15    42 1   
    29    16    17 ar  
    30    16    43 1   
    31    17    18 ar  
    32    17    19 1   
    33    19    20 1   
    34    19    24 1   
    35    20    21 1   
    36    20    44 1   
    37    20    45 1   
    38    21    22 1   
    39    21    46 1   
    40    21    47 1   
    41    22    23 1   
    42    22    48 1   
    43    22    49 1   
    44    23    50 1   
    45    24    25 ar  
    46    24    32 ar  
    47    25    26 ar  
    48    25    51 1   
    49    26    27 ar  
    50    26    52 1   
    51    27    28 ar  
    52    27    53 1   
    53    28    29 1   
    54    28    32 ar  
    55    29    30 1   
    56    29    54 1   
    57    30    31 2   
    58    31    32 1   
    59    31    55 1   
    60    33    56 1   
@<TRIPOS>SUBSTRUCTURE
     1 4DK         1 TEMP              0 ****  ****    0 ROOT
