@<TRIPOS>MOLECULE
4DL
   50    54     1     0     0
SMALL
abcg2


@<TRIPOS>ATOM
      1 O01          5.7650    -0.9830    -1.5720 oh         1 4DL      -0.650000
      2 C03          5.3760    -2.2510    -1.1020 c3         1 4DL       0.137600
      3 C06          4.8930    -2.1190     0.3300 c3         1 4DL       0.227800
      4 N09          3.6920    -1.3080     0.4660 nh         1 4DL      -0.808100
      5 C10          2.4570    -1.8240     0.2370 ca         1 4DL       0.429900
      6 C11          2.2530    -3.1610    -0.1720 ca         1 4DL      -0.332000
      7 C13          0.9490    -3.5390    -0.3630 ca         1 4DL       0.165900
      8 N15         -0.0990    -2.7320    -0.1920 nb         1 4DL      -0.267000
      9 C16          0.2020    -1.5030     0.2010 ca         1 4DL       0.420900
     10 N17         -0.7950    -0.5900     0.4170 nu         1 4DL      -0.931900
     11 C19         -2.1690    -0.6770     0.2750 ca         1 4DL       0.320000
     12 C20         -2.8550    -1.7990    -0.2200 ca         1 4DL      -0.095000
     13 C22         -4.2360    -1.8020    -0.3380 ca         1 4DL      -0.073000
     14 C24         -4.9710    -0.6870     0.0300 ca         1 4DL      -0.076300
     15 C25         -6.4550    -0.4900    -0.0290 c5         1 4DL       0.253100
     16 N28         -6.7120     0.7210     0.7490 n7         1 4DL      -0.868300
     17 S30         -5.3900     1.7170     0.8690 sy         1 4DL       1.134600
     18 O31         -5.2580     2.2090     2.2320 o          1 4DL      -0.532500
     19 O32         -5.3410     2.7270    -0.1820 o          1 4DL      -0.532500
     20 C33         -4.2790     0.4020     0.5160 ca         1 4DL      -0.235500
     21 C34         -2.9080     0.4490     0.6520 ca         1 4DL      -0.057000
     22 N36          1.4190    -1.0190     0.4290 nb         1 4DL      -0.305000
     23 C37          3.8450     0.0770     0.7210 ca         1 4DL       0.376000
     24 C38          4.3390     0.5210     1.9260 ca         1 4DL      -0.154000
     25 C40          4.5320     1.8960     2.1740 ca         1 4DL      -0.066000
     26 C42          4.2270     2.8550     1.2380 ca         1 4DL      -0.131000
     27 C44          3.7220     2.3970     0.0150 ca         1 4DL      -0.032200
     28 N45          3.3450     3.0510    -1.1090 na         1 4DL      -0.063400
     29 N47          2.9410     2.2170    -2.0700 nc         1 4DL      -0.520100
     30 C48          3.0450     1.0040    -1.5890 cd         1 4DL       0.368800
     31 C50          3.5350     1.0320    -0.2590 ca         1 4DL      -0.212900
     32 H1           5.6810    -0.9710    -2.5290 ho         1 4DL       0.448000
     33 H2           4.5820    -2.6830    -1.7210 h1         1 4DL       0.029700
     34 H3           6.2100    -2.9640    -1.1110 h1         1 4DL       0.029700
     35 H4           4.7250    -3.1110     0.7510 h1         1 4DL       0.066200
     36 H5           5.6730    -1.6640     0.9400 h1         1 4DL       0.066200
     37 H6           3.0520    -3.8640    -0.3430 ha         1 4DL       0.132000
     38 H7           0.7240    -4.5500    -0.6810 h4         1 4DL       0.019100
     39 H8          -0.4470     0.3010     0.7350 hn         1 4DL       0.516000
     40 H9          -2.2980    -2.6750    -0.5100 ha         1 4DL       0.158000
     41 H10         -4.7310    -2.6850    -0.7210 ha         1 4DL       0.120000
     42 H11         -6.7940    -0.3870    -1.0640 h1         1 4DL       0.066200
     43 H12         -6.9900    -1.3270     0.4210 h1         1 4DL       0.066200
     44 H13         -7.5710     1.2130     0.5310 hn         1 4DL       0.486000
     45 H14         -2.4140     1.3290     1.0450 ha         1 4DL       0.130000
     46 H15          4.5840    -0.1950     2.7010 ha         1 4DL       0.119000
     47 H16          4.9260     2.2000     3.1350 ha         1 4DL       0.116000
     48 H17          4.3730     3.9080     1.4370 ha         1 4DL       0.122000
     49 H18          3.3530     4.0440    -1.2790 hn         1 4DL       0.377000
     50 H19          2.7720     0.1500    -2.1890 h4         1 4DL       0.046800
@<TRIPOS>BOND
     1     1     2 1   
     2     1    32 1   
     3     2     3 1   
     4     2    33 1   
     5     2    34 1   
     6     3     4 1   
     7     3    35 1   
     8     3    36 1   
     9     4     5 1   
    10     4    23 1   
    11     5     6 ar  
    12     5    22 ar  
    13     6     7 ar  
    14     6    37 1   
    15     7     8 ar  
    16     7    38 1   
    17     8     9 ar  
    18     9    10 1   
    19     9    22 ar  
    20    10    11 1   
    21    10    39 1   
    22    11    12 ar  
    23    11    21 ar  
    24    12    13 ar  
    25    12    40 1   
    26    13    14 ar  
    27    13    41 1   
    28    14    15 1   
    29    14    20 ar  
    30    15    16 1   
    31    15    42 1   
    32    15    43 1   
    33    16    17 1   
    34    16    44 1   
    35    17    18 2   
    36    17    19 2   
    37    17    20 1   
    38    20    21 ar  
    39    21    45 1   
    40    23    24 ar  
    41    23    31 ar  
    42    24    25 ar  
    43    24    46 1   
    44    25    26 ar  
    45    25    47 1   
    46    26    27 ar  
    47    26    48 1   
    48    27    28 1   
    49    27    31 ar  
    50    28    29 1   
    51    28    49 1   
    52    29    30 2   
    53    30    31 1   
    54    30    50 1   
@<TRIPOS>SUBSTRUCTURE
     1 4DL         1 TEMP              0 ****  ****    0 ROOT
