@<TRIPOS>MOLECULE
4DL
   50    54     1     0     0
SMALL
No Charge or Current Charge


@<TRIPOS>ATOM
      1 O01          6.4420    -1.2340    -0.9300 oh         1 4DL      -0.650000
      2 C03          5.7060    -2.4080    -0.5340 c3         1 4DL       0.137600
      3 C06          4.8140    -2.1410     0.7140 c3         1 4DL       0.227800
      4 N09          3.6620    -1.2190     0.4950 nh         1 4DL      -0.808100
      5 C10          2.3770    -1.7300     0.2030 ca         1 4DL       0.429900
      6 C11          2.1780    -3.0120    -0.3360 ca         1 4DL      -0.332000
      7 C13          0.8600    -3.4190    -0.5840 ca         1 4DL       0.165900
      8 N15         -0.1820    -2.6130    -0.3200 nb         1 4DL      -0.267000
      9 C16          0.1120    -1.4030     0.1830 ca         1 4DL       0.420900
     10 N17         -0.9270    -0.5420     0.5020 nu         1 4DL      -0.931900
     11 C19         -2.3150    -0.5510     0.2910 ca         1 4DL       0.320000
     12 C20         -2.9080    -1.2260    -0.8040 ca         1 4DL      -0.095000
     13 C22         -4.3060    -1.2060    -1.0010 ca         1 4DL      -0.073000
     14 C24         -5.1150    -0.4960    -0.1000 ca         1 4DL      -0.076300
     15 C25         -6.6350    -0.3740    -0.1450 c5         1 4DL       0.253100
     16 N28         -7.0300     0.5640     0.9480 n7         1 4DL      -0.868300
     17 S30         -5.7590     1.0090     1.9290 sy         1 4DL       1.134600
     18 O31         -5.9490     0.3650     3.2310 o          1 4DL      -0.532500
     19 O32         -5.6040     2.4560     1.7710 o          1 4DL      -0.532500
     20 C33         -4.5300     0.1740     0.9660 ca         1 4DL      -0.235500
     21 C34         -3.1410     0.1700     1.1790 ca         1 4DL      -0.057000
     22 N36          1.3300    -0.9270     0.4670 nb         1 4DL      -0.305000
     23 C37          3.9060     0.1720     0.5460 ca         1 4DL       0.376000
     24 C38          4.4670     0.7840     1.6900 ca         1 4DL      -0.154000
     25 C40          4.7060     2.1810     1.7240 ca         1 4DL      -0.066000
     26 C42          4.3890     2.9840     0.6070 ca         1 4DL      -0.131000
     27 C44          3.8380     2.3490    -0.5120 ca         1 4DL      -0.032200
     28 N45          3.4530     2.8750    -1.7300 na         1 4DL      -0.063400
     29 N47          2.9710     1.8530    -2.5710 nc         1 4DL      -0.520100
     30 C48          3.0710     0.7290    -1.8370 cd         1 4DL       0.368800
     31 C50          3.6100     1.0110    -0.5340 ca         1 4DL      -0.212900
     32 H1           6.9460    -1.4700    -1.7400 ho         1 4DL       0.448000
     33 H2           5.0720    -2.7560    -1.3600 h1         1 4DL       0.029700
     34 H3           6.4050    -3.2200    -0.2920 h1         1 4DL       0.029700
     35 H4           4.4490    -3.1070     1.0910 h1         1 4DL       0.066200
     36 H5           5.4570    -1.7560     1.5170 h1         1 4DL       0.066200
     37 H6           3.0010    -3.6780    -0.5700 ha         1 4DL       0.132000
     38 H7           0.6350    -4.4000    -1.0010 h4         1 4DL       0.019100
     39 H8          -0.6040     0.2340     1.0780 hn         1 4DL       0.516000
     40 H9          -2.2890    -1.7550    -1.5190 ha         1 4DL       0.158000
     41 H10         -4.7490    -1.7300    -1.8450 ha         1 4DL       0.120000
     42 H11         -6.9780    -0.0170    -1.1270 h1         1 4DL       0.066200
     43 H12         -7.0850    -1.3630     0.0210 h1         1 4DL       0.066200
     44 H13         -7.2310     1.4800     0.5480 hn         1 4DL       0.486000
     45 H14         -2.7110     0.7090     2.0200 ha         1 4DL       0.130000
     46 H15          4.7070     0.1810     2.5600 ha         1 4DL       0.119000
     47 H16          5.1350     2.6360     2.6140 ha         1 4DL       0.116000
     48 H17          4.5710     4.0570     0.6170 ha         1 4DL       0.122000
     49 H18          3.4990     3.8520    -2.0190 hn         1 4DL       0.377000
     50 H19          2.7620    -0.2150    -2.2710 h4         1 4DL       0.046800
@<TRIPOS>BOND
     1     1     2 1   
     2     1    32 1   
     3     2     3 1   
     4     2    33 1   
     5     2    34 1   
     6     3     4 1   
     7     3    35 1   
     8     3    36 1   
     9     4     5 1   
    10     4    23 1   
    11     5     6 ar  
    12     5    22 ar  
    13     6     7 ar  
    14     6    37 1   
    15     7     8 ar  
    16     7    38 1   
    17     8     9 ar  
    18     9    10 1   
    19     9    22 ar  
    20    10    11 1   
    21    10    39 1   
    22    11    12 ar  
    23    11    21 ar  
    24    12    13 ar  
    25    12    40 1   
    26    13    14 ar  
    27    13    41 1   
    28    14    15 1   
    29    14    20 ar  
    30    15    16 1   
    31    15    42 1   
    32    15    43 1   
    33    16    17 1   
    34    16    44 1   
    35    17    18 2   
    36    17    19 2   
    37    17    20 1   
    38    20    21 ar  
    39    21    45 1   
    40    23    24 ar  
    41    23    31 ar  
    42    24    25 ar  
    43    24    46 1   
    44    25    26 ar  
    45    25    47 1   
    46    26    27 ar  
    47    26    48 1   
    48    27    28 1   
    49    27    31 ar  
    50    28    29 1   
    51    28    49 1   
    52    29    30 2   
    53    30    31 1   
    54    30    50 1   
@<TRIPOS>SUBSTRUCTURE
     1 4DL         1 TEMP              0 ****  ****    0 ROOT
