@<TRIPOS>MOLECULE
4DM
   45    48     1     0     0
SMALL
abcg2


@<TRIPOS>ATOM
      1 C4          -1.6530     1.2110    -1.2740 c6         1 4DM      -0.065200
      2 C3          -2.8970     0.3930    -1.3700 c2         1 4DM       0.231900
      3 O3          -3.3560     0.3160    -2.6010 oh         1 4DM      -0.523100
      4 C2          -3.4930    -0.1860    -0.2850 ce         1 4DM      -0.425400
      5 C1          -2.8910    -0.0720     1.0260 c          1 4DM       0.597300
      6 C5           0.0350     2.3070     0.2450 c6         1 4DM      -0.031100
      7 C6           2.4320     1.6990    -0.1390 ca         1 4DM      -0.143300
      8 C12         -0.4490    -0.5240     0.7880 c          1 4DM       0.590700
      9 C1B          0.8740    -0.0830     0.3990 ca         1 4DM      -0.343600
     10 C11          1.8820    -1.0510     0.2740 ca         1 4DM       0.294100
     11 O11          1.6240    -2.3250     0.4850 oh         1 4DM      -0.523100
     12 C1A          3.2080    -0.6660    -0.0810 ca         1 4DM      -0.133000
     13 C10          4.2720    -1.6020    -0.2470 ca         1 4DM       0.205100
     14 O10          4.0330    -2.9050    -0.0600 oh         1 4DM      -0.501100
     15 C9           5.5330    -1.1640    -0.5990 ca         1 4DM      -0.255000
     16 C8           5.7740     0.1950    -0.7940 ca         1 4DM      -0.028000
     17 C7           4.7740     1.1200    -0.6370 ca         1 4DM      -0.173000
     18 C61          3.4720     0.7200    -0.2790 ca         1 4DM       0.074000
     19 C62          2.7870     3.1470    -0.3370 c3         1 4DM      -0.039800
     20 C51          1.1580     1.3000     0.1610 ca         1 4DM       0.034700
     21 C1C         -1.4940     0.5440     1.1110 c6         1 4DM       0.005000
     22 O1          -3.4130    -0.4660     2.0510 o          1 4DM      -0.502100
     23 O1C         -1.2330     0.9780     2.4140 oh         1 4DM      -0.634000
     24 C41         -1.3540     1.6970     0.1400 c6         1 4DM      -0.041700
     25 C21         -4.8290    -0.8380    -0.3980 c          1 4DM       0.615300
     26 O21         -5.7610    -0.5490     0.3220 o          1 4DM      -0.539100
     27 N21         -4.9350    -1.7090    -1.4440 nt         1 4DM      -0.612000
     28 H4          -0.8280     0.6130    -1.6780 hc         1 4DM       0.085200
     29 H4A         -1.7490     2.0680    -1.9450 hc         1 4DM       0.085200
     30 HO3         -4.1250    -0.2820    -2.6580 ho         1 4DM       0.507000
     31 H5           0.1090     2.8630     1.1830 hc         1 4DM       0.068700
     32 H5A          0.1430     3.0470    -0.5490 hc         1 4DM       0.068700
     33 HO11         0.6560    -2.4010     0.7020 ho         1 4DM       0.525000
     34 HO10         4.8410    -3.4060    -0.2200 ho         1 4DM       0.467000
     35 H9           6.3350    -1.8810    -0.7260 ha         1 4DM       0.117000
     36 H8           6.7680     0.5180    -1.0730 ha         1 4DM       0.114000
     37 H7           4.9980     2.1630    -0.8010 ha         1 4DM       0.121000
     38 H62          3.0590     3.3600    -1.3730 hc         1 4DM       0.040367
     39 H62A         1.9760     3.8170    -0.0690 hc         1 4DM       0.040367
     40 H62B         3.6390     3.4330     0.2820 hc         1 4DM       0.040367
     41 HO1C        -1.7540     0.4250     3.0140 ho         1 4DM       0.479000
     42 H41         -2.0910     2.4620     0.4010 hc         1 4DM       0.079700
     43 HN21        -4.1280    -2.2650    -1.6880 hn         1 4DM       0.300000
     44 HN2A        -5.8140    -2.1970    -1.5450 hn         1 4DM       0.300000
     45 O12         -0.7460    -1.7110     0.9440 o          1 4DM      -0.576100
@<TRIPOS>BOND
     1     1     2 1   
     2     1    24 1   
     3     1    28 1   
     4     1    29 1   
     5     2     3 1   
     6     2     4 2   
     7     3    30 1   
     8     4     5 1   
     9     4    25 1   
    10     5    21 1   
    11     5    22 2   
    12     6    20 1   
    13     6    24 1   
    14     6    31 1   
    15     6    32 1   
    16     7    18 ar  
    17     7    19 1   
    18     7    20 ar  
    19     8     9 1   
    20     8    21 1   
    21     8    45 2   
    22     9    10 ar  
    23     9    20 ar  
    24    10    11 1   
    25    10    12 ar  
    26    11    33 1   
    27    12    13 ar  
    28    12    18 ar  
    29    13    14 1   
    30    13    15 ar  
    31    14    34 1   
    32    15    16 ar  
    33    15    35 1   
    34    16    17 ar  
    35    16    36 1   
    36    17    18 ar  
    37    17    37 1   
    38    19    38 1   
    39    19    39 1   
    40    19    40 1   
    41    21    23 1   
    42    21    24 1   
    43    23    41 1   
    44    24    42 1   
    45    25    26 2   
    46    25    27 1   
    47    27    43 1   
    48    27    44 1   
@<TRIPOS>SUBSTRUCTURE
     1 4DM         1 TEMP              0 ****  ****    0 ROOT
