@<TRIPOS>MOLECULE
4DM
   45    48     1     0     0
SMALL
No Charge or Current Charge


@<TRIPOS>ATOM
      1 C4          -1.4850     1.0060    -1.2400 c6         1 4DM      -0.065200
      2 C3          -2.8520     0.3940    -1.4370 c2         1 4DM       0.231900
      3 O3          -3.3500     0.6690    -2.6530 oh         1 4DM      -0.523100
      4 C2          -3.5030    -0.2760    -0.4560 ce         1 4DM      -0.425400
      5 C1          -2.8460    -0.4190     0.8920 c          1 4DM       0.597300
      6 C5           0.0120     2.2600     0.4000 c6         1 4DM      -0.031100
      7 C6           2.4490     1.6630    -0.1800 ca         1 4DM      -0.143300
      8 C12         -0.3500    -0.4420     1.4090 c          1 4DM       0.590700
      9 C1B          0.9750    -0.0590     0.7640 ca         1 4DM      -0.343600
     10 C11          2.0180    -1.0070     0.6340 ca         1 4DM       0.294100
     11 O11          1.7820    -2.2710     1.0840 oh         1 4DM      -0.523100
     12 C1A          3.2640    -0.6600     0.0400 ca         1 4DM      -0.133000
     13 C10          4.3290    -1.5970    -0.1570 ca         1 4DM       0.205100
     14 O10          4.2510    -2.9120     0.2010 oh         1 4DM      -0.501100
     15 C9           5.5340    -1.2000    -0.7520 ca         1 4DM      -0.255000
     16 C8           5.7170     0.1160    -1.1690 ca         1 4DM      -0.028000
     17 C7           4.6950     1.0480    -0.9810 ca         1 4DM      -0.173000
     18 C61          3.4670     0.6880    -0.3700 ca         1 4DM       0.074000
     19 C62          2.7240     3.1460    -0.5050 c3         1 4DM      -0.039800
     20 C51          1.1830     1.2680     0.3240 ca         1 4DM       0.034700
     21 C1C         -1.6060     0.4780     1.2530 c6         1 4DM       0.005000
     22 O1          -3.2830    -1.1980     1.7300 o          1 4DM      -0.502100
     23 O1C         -1.8610     1.1440     2.5330 oh         1 4DM      -0.634000
     24 C41         -1.3580     1.5800     0.1910 c6         1 4DM      -0.041700
     25 C21         -4.8250    -0.9400    -0.6530 c          1 4DM       0.615300
     26 O21         -5.6330    -1.1240     0.2360 o          1 4DM      -0.539100
     27 N21         -5.1240    -1.3520    -1.9040 nt         1 4DM      -0.612000
     28 H4          -0.7210     0.2430    -1.4400 hc         1 4DM       0.085200
     29 H4A         -1.3170     1.8070    -1.9750 hc         1 4DM       0.085200
     30 HO3         -4.3150     0.4990    -2.6230 ho         1 4DM       0.507000
     31 H5           0.0350     2.7790     1.3680 hc         1 4DM       0.068700
     32 H5A          0.0980     3.0390    -0.3670 hc         1 4DM       0.068700
     33 HO11         0.9330    -2.2230     1.5930 ho         1 4DM       0.525000
     34 HO10         5.0970    -3.3430    -0.0350 ho         1 4DM       0.467000
     35 H9           6.3390    -1.9160    -0.9030 ha         1 4DM       0.117000
     36 H8           6.6510     0.4170    -1.6410 ha         1 4DM       0.114000
     37 H7           4.8810     2.0530    -1.3460 ha         1 4DM       0.121000
     38 H62          2.6100     3.3450    -1.5770 hc         1 4DM       0.040367
     39 H62A         2.0730     3.8370     0.0400 hc         1 4DM       0.040367
     40 H62B         3.7320     3.4500    -0.2030 hc         1 4DM       0.040367
     41 HO1C        -2.0840     0.4400     3.1880 ho         1 4DM       0.479000
     42 H41         -2.1360     2.3500     0.3040 hc         1 4DM       0.079700
     43 HN21        -4.3990    -1.3980    -2.6050 hn         1 4DM       0.300000
     44 HN2A        -6.0030    -1.8260    -2.0580 hn         1 4DM       0.300000
     45 O12         -0.4100    -1.4440     2.1160 o          1 4DM      -0.576100
@<TRIPOS>BOND
     1     1     2 1   
     2     1    24 1   
     3     1    28 1   
     4     1    29 1   
     5     2     3 1   
     6     2     4 2   
     7     3    30 1   
     8     4     5 1   
     9     4    25 1   
    10     5    21 1   
    11     5    22 2   
    12     6    20 1   
    13     6    24 1   
    14     6    31 1   
    15     6    32 1   
    16     7    18 ar  
    17     7    19 1   
    18     7    20 ar  
    19     8     9 1   
    20     8    21 1   
    21     8    45 2   
    22     9    10 ar  
    23     9    20 ar  
    24    10    11 1   
    25    10    12 ar  
    26    11    33 1   
    27    12    13 ar  
    28    12    18 ar  
    29    13    14 1   
    30    13    15 ar  
    31    14    34 1   
    32    15    16 ar  
    33    15    35 1   
    34    16    17 ar  
    35    16    36 1   
    36    17    18 ar  
    37    17    37 1   
    38    19    38 1   
    39    19    39 1   
    40    19    40 1   
    41    21    23 1   
    42    21    24 1   
    43    23    41 1   
    44    24    42 1   
    45    25    26 2   
    46    25    27 1   
    47    27    43 1   
    48    27    44 1   
@<TRIPOS>SUBSTRUCTURE
     1 4DM         1 TEMP              0 ****  ****    0 ROOT
