@<TRIPOS>MOLECULE
4DN
   53    57     1     0     0
SMALL
abcg2


@<TRIPOS>ATOM
      1 O3          -6.3070    -1.4760     1.0750 o          1 4DN      -0.530500
      2 S2          -6.0370    -0.8030    -0.1910 sy         1 4DN       1.136600
      3 O1          -5.8650    -1.6710    -1.3460 o          1 4DN      -0.530500
      4 C6          -4.7170     0.3440    -0.0290 ca         1 4DN      -0.240500
      5 C10         -3.3820    -0.0050     0.0830 ca         1 4DN      -0.022000
      6 C11         -2.4660     1.0360     0.2390 ca         1 4DN       0.319000
      7 C9          -2.9430     2.3610     0.2660 ca         1 4DN      -0.130000
      8 C8          -4.2850     2.6620     0.1480 ca         1 4DN      -0.069000
      9 C7          -5.2030     1.6300     0.0030 ca         1 4DN      -0.077300
     10 C5          -6.6920     1.7280    -0.1290 c5         1 4DN       0.254100
     11 N4          -7.1360     0.3940    -0.5320 n7         1 4DN      -0.870300
     12 N12         -1.0990     0.8740     0.3600 nu         1 4DN      -0.931900
     13 C13         -0.3320    -0.2500     0.5110 ca         1 4DN       0.415900
     14 N17          0.9600     0.0100     0.6820 nb         1 4DN      -0.306000
     15 C18          1.7840    -1.0170     0.8530 ca         1 4DN       0.427900
     16 C16          1.2860    -2.3380     0.8490 ca         1 4DN      -0.324000
     17 C15         -0.0660    -2.4710     0.6580 ca         1 4DN       0.167900
     18 N14         -0.9030    -1.4460     0.4860 nb         1 4DN      -0.259000
     19 N19          3.0960    -0.7270     1.0460 nh         1 4DN      -0.813100
     20 C20          4.0720    -1.7550     1.3700 c3         1 4DN       0.234800
     21 C21          4.6930    -2.4060     0.1410 c3         1 4DN      -0.114400
     22 C32          5.6990    -3.4690     0.5420 c3         1 4DN       0.167600
     23 O31          6.2560    -4.0320    -0.6240 oh         1 4DN      -0.656000
     24 C22          3.5880     0.5660     0.7420 ca         1 4DN       0.366000
     25 C30          4.1760     1.3510     1.7080 ca         1 4DN      -0.153000
     26 C29          4.7240     2.6100     1.3890 ca         1 4DN      -0.067000
     27 C28          4.6930     3.1190     0.1120 ca         1 4DN      -0.133000
     28 C27          4.0920     2.3160    -0.8660 ca         1 4DN      -0.033200
     29 C23          3.5490     1.0540    -0.5740 ca         1 4DN      -0.230900
     30 N26          3.9080     2.4960    -2.1950 na         1 4DN      -0.063400
     31 N25          3.2980     1.4570    -2.7680 nc         1 4DN      -0.513100
     32 C24          3.0700     0.5810    -1.8230 cd         1 4DN       0.365800
     33 H1          -3.0560    -1.0320     0.0520 ha         1 4DN       0.171000
     34 H2          -2.2330     3.1720     0.3810 ha         1 4DN       0.116000
     35 H3          -4.6080     3.6950     0.1720 ha         1 4DN       0.120000
     36 H4          -7.1460     2.0350     0.8170 h1         1 4DN       0.065200
     37 H5          -6.9790     2.4520    -0.8920 h1         1 4DN       0.065200
     38 H6          -8.0880     0.1530    -0.2820 hn         1 4DN       0.486000
     39 H7          -0.5610     1.7250     0.4170 hn         1 4DN       0.512000
     40 H8           1.9100    -3.2110     0.9580 ha         1 4DN       0.137000
     41 H9          -0.5110    -3.4590     0.6330 h4         1 4DN       0.025100
     42 H10          4.8510    -1.2910     1.9760 h1         1 4DN       0.056200
     43 H11          3.6010    -2.5020     2.0120 h1         1 4DN       0.056200
     44 H12          3.9120    -2.8540    -0.4800 hc         1 4DN       0.067700
     45 H13          5.1880    -1.6410    -0.4650 hc         1 4DN       0.067700
     46 H14          6.4700    -3.0140     1.1780 h1         1 4DN       0.015200
     47 H15          5.1950    -4.2280     1.1550 h1         1 4DN       0.015200
     48 H16          6.8600    -4.7310    -0.3590 ho         1 4DN       0.446000
     49 H17          4.2190     1.0000     2.7310 ha         1 4DN       0.121000
     50 H18          5.1780     3.1930     2.1800 ha         1 4DN       0.116000
     51 H19          5.1140     4.0860    -0.1260 ha         1 4DN       0.122000
     52 H20          4.1830     3.2850    -2.7560 hn         1 4DN       0.377000
     53 H21          2.5800    -0.3540    -2.0490 h4         1 4DN       0.054800
@<TRIPOS>BOND
     1     1     2 2   
     2     2     3 2   
     3     2     4 1   
     4     2    11 1   
     5     4     5 ar  
     6     4     9 ar  
     7     5     6 ar  
     8     5    33 1   
     9     6     7 ar  
    10     6    12 1   
    11     7     8 ar  
    12     7    34 1   
    13     8     9 ar  
    14     8    35 1   
    15     9    10 1   
    16    10    11 1   
    17    10    36 1   
    18    10    37 1   
    19    11    38 1   
    20    12    13 1   
    21    12    39 1   
    22    13    14 ar  
    23    13    18 ar  
    24    14    15 ar  
    25    15    16 ar  
    26    15    19 1   
    27    16    17 ar  
    28    16    40 1   
    29    17    18 ar  
    30    17    41 1   
    31    19    20 1   
    32    19    24 1   
    33    20    21 1   
    34    20    42 1   
    35    20    43 1   
    36    21    22 1   
    37    21    44 1   
    38    21    45 1   
    39    22    23 1   
    40    22    46 1   
    41    22    47 1   
    42    23    48 1   
    43    24    25 ar  
    44    24    29 ar  
    45    25    26 ar  
    46    25    49 1   
    47    26    27 ar  
    48    26    50 1   
    49    27    28 ar  
    50    27    51 1   
    51    28    29 ar  
    52    28    30 1   
    53    29    32 1   
    54    30    31 1   
    55    30    52 1   
    56    31    32 2   
    57    32    53 1   
@<TRIPOS>SUBSTRUCTURE
     1 4DN         1 TEMP              0 ****  ****    0 ROOT
