@<TRIPOS>MOLECULE
4DN
   53    57     1     0     0
SMALL
No Charge or Current Charge


@<TRIPOS>ATOM
      1 O3          -6.2110    -1.6850    -0.5370 o          1 4DN      -0.530500
      2 S2          -5.9770    -0.4060    -1.2080 sy         1 4DN       1.136600
      3 O1          -5.7760    -0.2880    -2.6550 o          1 4DN      -0.530500
      4 C6          -4.7640     0.5170    -0.3120 ca         1 4DN      -0.240500
      5 C10         -3.3990     0.2110    -0.1740 ca         1 4DN      -0.022000
      6 C11         -2.5850     1.0670     0.6030 ca         1 4DN       0.319000
      7 C9          -3.1640     2.2110     1.1980 ca         1 4DN      -0.130000
      8 C8          -4.5380     2.4970     1.0480 ca         1 4DN      -0.069000
      9 C7          -5.3370     1.6310     0.2870 ca         1 4DN      -0.077300
     10 C5          -6.8270     1.7880    -0.0020 c5         1 4DN       0.254100
     11 N4          -7.2470     0.5860    -0.7850 n7         1 4DN      -0.870300
     12 N12         -1.2100     0.8520     0.7850 nu         1 4DN      -0.931900
     13 C13         -0.3790    -0.2570     0.7410 ca         1 4DN       0.415900
     14 N17          0.9240     0.0270     0.8590 nb         1 4DN      -0.306000
     15 C18          1.7780    -1.0130     0.8330 ca         1 4DN       0.427900
     16 C16          1.3070    -2.3270     0.6900 ca         1 4DN      -0.324000
     17 C15         -0.0770    -2.5160     0.5820 ca         1 4DN       0.167900
     18 N14         -0.9290    -1.4760     0.6090 nb         1 4DN      -0.259000
     19 N19          3.1540    -0.7090     0.9450 nh         1 4DN      -0.813100
     20 C20          4.0970    -1.7010     1.5110 c3         1 4DN       0.234800
     21 C21          4.9520    -2.4020     0.4380 c3         1 4DN      -0.114400
     22 C32          5.9090    -3.4460     1.0370 c3         1 4DN       0.167600
     23 O31          6.6710    -4.0550    -0.0090 oh         1 4DN      -0.656000
     24 C22          3.6710     0.5250     0.4910 ca         1 4DN       0.366000
     25 C30          4.4500     1.3590     1.3260 ca         1 4DN      -0.153000
     26 C29          4.9730     2.5840     0.8450 ca         1 4DN      -0.067000
     27 C28          4.7290     2.9890    -0.4850 ca         1 4DN      -0.133000
     28 C27          3.9590     2.1400    -1.2890 ca         1 4DN      -0.033200
     29 C23          3.4580     0.9690    -0.8190 ca         1 4DN      -0.230900
     30 N26          3.5840     2.2720    -2.6120 na         1 4DN      -0.063400
     31 N25          2.8280     1.1550    -3.0170 nc         1 4DN      -0.513100
     32 C24          2.7570     0.3730    -1.9250 cd         1 4DN       0.365800
     33 H1          -2.9840    -0.6580    -0.6740 ha         1 4DN       0.171000
     34 H2          -2.5470     2.8830     1.7880 ha         1 4DN       0.116000
     35 H3          -4.9700     3.3800     1.5140 ha         1 4DN       0.120000
     36 H4          -7.4060     1.8860     0.9270 h1         1 4DN       0.065200
     37 H5          -6.9900     2.7020    -0.5900 h1         1 4DN       0.065200
     38 H6          -7.7370    -0.0620    -0.1690 hn         1 4DN       0.486000
     39 H7          -0.7050     1.6840     1.0870 hn         1 4DN       0.512000
     40 H8           1.9760    -3.1790     0.6480 ha         1 4DN       0.137000
     41 H9          -0.5110    -3.5080     0.4670 h4         1 4DN       0.025100
     42 H10          4.7660    -1.2110     2.2310 h1         1 4DN       0.056200
     43 H11          3.5530    -2.4580     2.0910 h1         1 4DN       0.056200
     44 H12          4.2920    -2.8900    -0.2880 hc         1 4DN       0.067700
     45 H13          5.5340    -1.6490    -0.1070 hc         1 4DN       0.067700
     46 H14          6.5770    -2.9550     1.7580 h1         1 4DN       0.015200
     47 H15          5.3280    -4.2060     1.5760 h1         1 4DN       0.015200
     48 H16          7.2660    -4.7120     0.4160 ho         1 4DN       0.446000
     49 H17          4.6400     1.0650     2.3540 ha         1 4DN       0.121000
     50 H18          5.5670     3.2160     1.5020 ha         1 4DN       0.116000
     51 H19          5.1290     3.9240    -0.8700 ha         1 4DN       0.122000
     52 H20          3.8050     3.0450    -3.2380 hn         1 4DN       0.377000
     53 H21          2.2230    -0.5670    -1.9820 h4         1 4DN       0.054800
@<TRIPOS>BOND
     1     1     2 2   
     2     2     3 2   
     3     2     4 1   
     4     2    11 1   
     5     4     5 ar  
     6     4     9 ar  
     7     5     6 ar  
     8     5    33 1   
     9     6     7 ar  
    10     6    12 1   
    11     7     8 ar  
    12     7    34 1   
    13     8     9 ar  
    14     8    35 1   
    15     9    10 1   
    16    10    11 1   
    17    10    36 1   
    18    10    37 1   
    19    11    38 1   
    20    12    13 1   
    21    12    39 1   
    22    13    14 ar  
    23    13    18 ar  
    24    14    15 ar  
    25    15    16 ar  
    26    15    19 1   
    27    16    17 ar  
    28    16    40 1   
    29    17    18 ar  
    30    17    41 1   
    31    19    20 1   
    32    19    24 1   
    33    20    21 1   
    34    20    42 1   
    35    20    43 1   
    36    21    22 1   
    37    21    44 1   
    38    21    45 1   
    39    22    23 1   
    40    22    46 1   
    41    22    47 1   
    42    23    48 1   
    43    24    25 ar  
    44    24    29 ar  
    45    25    26 ar  
    46    25    49 1   
    47    26    27 ar  
    48    26    50 1   
    49    27    28 ar  
    50    27    51 1   
    51    28    29 ar  
    52    28    30 1   
    53    29    32 1   
    54    30    31 1   
    55    30    52 1   
    56    31    32 2   
    57    32    53 1   
@<TRIPOS>SUBSTRUCTURE
     1 4DN         1 TEMP              0 ****  ****    0 ROOT
