@<TRIPOS>MOLECULE
4DO
   46    50     1     0     0
SMALL
No Charge or Current Charge


@<TRIPOS>ATOM
      1 O2          39.1880    38.5070    30.3380 o          1 4DO      -0.531500
      2 S1          39.7990    38.6160    31.6650 sy         1 4DO       1.131600
      3 O1          40.1930    37.4510    32.4590 o          1 4DO      -0.531500
      4 N6          41.1510    39.5840    31.5350 n7         1 4DO      -0.817300
      5 C15         40.9970    40.9200    32.1890 c5         1 4DO       0.226100
      6 C14         39.6510    40.9050    32.9080 ca         1 4DO      -0.102300
      7 C16         38.9110    39.7510    32.6900 ca         1 4DO      -0.259500
      8 C17         37.6420    39.5570    33.2600 ca         1 4DO      -0.021000
      9 C13         39.1280    41.9210    33.7240 ca         1 4DO      -0.062000
     10 C12         37.8540    41.7490    34.3050 ca         1 4DO      -0.127000
     11 C11         37.0960    40.5790    34.0710 ca         1 4DO       0.319000
     12 N5          35.8380    40.4670    34.6860 nu         1 4DO      -0.933900
     13 C10         34.6740    39.7730    34.3930 ca         1 4DO       0.405900
     14 N7          33.7230    39.8430    35.3370 nb         1 4DO      -0.250000
     15 C18         32.5760    39.1850    35.0840 ca         1 4DO       0.135900
     16 C19         32.3870    38.4730    33.8880 ca         1 4DO      -0.037000
     17 F2          31.2300    37.7940    33.6910 f          1 4DO      -0.160000
     18 N4          34.5960    39.1280    33.2180 nb         1 4DO      -0.301000
     19 C9          33.4490    38.4730    32.9460 ca         1 4DO       0.400900
     20 N1          33.3950    37.7970    31.6930 nh         1 4DO      -0.796100
     21 C1          34.6530    37.4510    30.9800 c3         1 4DO       0.218100
     22 C2          32.1750    37.6140    31.0120 ca         1 4DO       0.346000
     23 C3          31.3150    38.7020    30.7430 ca         1 4DO      -0.155000
     24 C4          30.0940    38.5070    30.0510 ca         1 4DO      -0.058000
     25 C5          29.7190    37.2160    29.6200 ca         1 4DO      -0.131000
     26 C6          30.5940    36.1600    29.9020 ca         1 4DO      -0.021200
     27 C8          31.7630    36.3550    30.5630 ca         1 4DO      -0.229900
     28 N2          30.4740    34.8130    29.6210 na         1 4DO      -0.074400
     29 N3          31.5870    34.1100    30.1230 nc         1 4DO      -0.509100
     30 C7          32.3600    35.0520    30.6920 cd         1 4DO       0.366800
     31 H13         41.8000    39.0130    32.0750 hn         1 4DO       0.473000
     32 H1_5        41.8210    41.1270    32.8870 h1         1 4DO       0.081200
     33 H1_4        40.9990    41.7190    31.4340 h1         1 4DO       0.081200
     34 H12         37.1060    38.6290    33.0930 ha         1 4DO       0.163000
     35 H16         39.6960    42.8320    33.9050 ha         1 4DO       0.122000
     36 H17         37.4490    42.5370    34.9330 ha         1 4DO       0.119000
     37 H11         35.7170    41.0910    35.4830 hn         1 4DO       0.514000
     38 H10         31.8040    39.2240    35.8500 h4         1 4DO       0.040100
     39 H__9        34.4440    36.8880    30.0600 h1         1 4DO       0.054367
     40 H__8        35.2020    38.3590    30.6920 h1         1 4DO       0.054367
     41 H__7        35.2970    36.8260    31.6120 h1         1 4DO       0.054367
     42 H6          31.5960    39.6990    31.0670 ha         1 4DO       0.124000
     43 H5          29.4420    39.3560    29.8510 ha         1 4DO       0.119000
     44 H4          28.7830    37.0500    29.0930 ha         1 4DO       0.124000
     45 H3          29.7070    34.3540    29.1310 hn         1 4DO       0.378000
     46 H1          33.2890    34.7590    31.1660 h4         1 4DO       0.055800
@<TRIPOS>BOND
     1     1     2 2   
     2     2     3 2   
     3     2     4 1   
     4     2     7 1   
     5     4     5 1   
     6     4    31 1   
     7     5     6 1   
     8     5    32 1   
     9     5    33 1   
    10     6     7 ar  
    11     6     9 ar  
    12     7     8 ar  
    13     8    11 ar  
    14     8    34 1   
    15     9    10 ar  
    16     9    35 1   
    17    10    11 ar  
    18    10    36 1   
    19    11    12 1   
    20    12    13 1   
    21    12    37 1   
    22    13    14 ar  
    23    13    18 ar  
    24    14    15 ar  
    25    15    16 ar  
    26    15    38 1   
    27    16    17 1   
    28    16    19 ar  
    29    18    19 ar  
    30    19    20 1   
    31    20    21 1   
    32    20    22 1   
    33    21    39 1   
    34    21    40 1   
    35    21    41 1   
    36    22    23 ar  
    37    22    27 ar  
    38    23    24 ar  
    39    23    42 1   
    40    24    25 ar  
    41    24    43 1   
    42    25    26 ar  
    43    25    44 1   
    44    26    27 ar  
    45    26    28 1   
    46    27    30 1   
    47    28    29 1   
    48    28    45 1   
    49    29    30 2   
    50    30    46 1   
@<TRIPOS>SUBSTRUCTURE
     1 4DO         1 TEMP              0 ****  ****    0 ROOT
