@<TRIPOS>MOLECULE
4DO
   46    50     1     0     0
SMALL
abcg2


@<TRIPOS>ATOM
      1 O2          38.9480    39.6900    29.9350 o          1 4DO      -0.531500
      2 S1          39.4230    39.0610    31.1470 sy         1 4DO       1.131600
      3 O1          39.3330    37.6190    31.2160 o          1 4DO      -0.531500
      4 N6          40.9930    39.5280    31.4500 n7         1 4DO      -0.817300
      5 C15         41.0280    40.6800    32.3840 c5         1 4DO       0.226100
      6 C14         39.6880    40.7410    33.0780 ca         1 4DO      -0.102300
      7 C16         38.7330    39.9000    32.5380 ca         1 4DO      -0.259500
      8 C17         37.4260    39.8000    32.9880 ca         1 4DO      -0.021000
      9 C13         39.3090    41.5500    34.1460 ca         1 4DO      -0.062000
     10 C12         38.0170    41.4720    34.6330 ca         1 4DO      -0.127000
     11 C11         37.0580    40.6030    34.0720 ca         1 4DO       0.319000
     12 N5          35.8000    40.6020    34.6630 nu         1 4DO      -0.933900
     13 C10         34.6330    39.9590    34.3220 ca         1 4DO       0.405900
     14 N7          33.6140    40.1880    35.1630 nb         1 4DO      -0.250000
     15 C18         32.4800    39.5420    34.8730 ca         1 4DO       0.135900
     16 C19         32.3560    38.7220    33.7840 ca         1 4DO      -0.037000
     17 F2          31.2040    38.0340    33.5980 f          1 4DO      -0.160000
     18 N4          34.5950    39.2020    33.2270 nb         1 4DO      -0.301000
     19 C9          33.4540    38.5740    32.9130 ca         1 4DO       0.400900
     20 N1          33.4460    37.7900    31.7990 nh         1 4DO      -0.796100
     21 C1          34.7120    37.5450    31.1020 c3         1 4DO       0.218100
     22 C2          32.2480    37.5370    31.0730 ca         1 4DO       0.346000
     23 C3          31.4230    38.5650    30.6610 ca         1 4DO      -0.155000
     24 C4          30.2460    38.3070    29.9280 ca         1 4DO      -0.058000
     25 C5          29.8720    37.0270    29.5720 ca         1 4DO      -0.131000
     26 C6          30.7170    35.9890    29.9830 ca         1 4DO      -0.021200
     27 C8          31.8960    36.2190    30.7300 ca         1 4DO      -0.229900
     28 N2          30.6370    34.6390    29.8280 na         1 4DO      -0.074400
     29 N3          31.6680    33.9920    30.4210 nc         1 4DO      -0.509100
     30 C7          32.4310    34.9220    30.9660 cd         1 4DO       0.366800
     31 H13         41.5050    38.7290    31.8110 hn         1 4DO       0.473000
     32 H1_5        41.8470    40.5310    33.0860 h1         1 4DO       0.081200
     33 H1_4        41.2180    41.5990    31.8270 h1         1 4DO       0.081200
     34 H12         36.7170    39.1330    32.5290 ha         1 4DO       0.163000
     35 H16         40.0180    42.2300    34.6020 ha         1 4DO       0.122000
     36 H17         37.7260    42.0920    35.4730 ha         1 4DO       0.119000
     37 H11         35.7020    41.1790    35.4840 hn         1 4DO       0.514000
     38 H10         31.6370    39.6710    35.5450 h4         1 4DO       0.040100
     39 H__9        34.5340    36.8000    30.3320 h1         1 4DO       0.054367
     40 H__8        35.0880    38.4580    30.6350 h1         1 4DO       0.054367
     41 H__7        35.4590    37.1710    31.7990 h1         1 4DO       0.054367
     42 H6          31.6840    39.5860    30.9080 ha         1 4DO       0.124000
     43 H5          29.6270    39.1440    29.6300 ha         1 4DO       0.119000
     44 H4          28.9710    36.8330    29.0070 ha         1 4DO       0.124000
     45 H3          29.9220    34.1120    29.3540 hn         1 4DO       0.378000
     46 H1          33.3240    34.6480    31.5040 h4         1 4DO       0.055800
@<TRIPOS>BOND
     1     1     2 2   
     2     2     3 2   
     3     2     4 1   
     4     2     7 1   
     5     4     5 1   
     6     4    31 1   
     7     5     6 1   
     8     5    32 1   
     9     5    33 1   
    10     6     7 ar  
    11     6     9 ar  
    12     7     8 ar  
    13     8    11 ar  
    14     8    34 1   
    15     9    10 ar  
    16     9    35 1   
    17    10    11 ar  
    18    10    36 1   
    19    11    12 1   
    20    12    13 1   
    21    12    37 1   
    22    13    14 ar  
    23    13    18 ar  
    24    14    15 ar  
    25    15    16 ar  
    26    15    38 1   
    27    16    17 1   
    28    16    19 ar  
    29    18    19 ar  
    30    19    20 1   
    31    20    21 1   
    32    20    22 1   
    33    21    39 1   
    34    21    40 1   
    35    21    41 1   
    36    22    23 ar  
    37    22    27 ar  
    38    23    24 ar  
    39    23    42 1   
    40    24    25 ar  
    41    24    43 1   
    42    25    26 ar  
    43    25    44 1   
    44    26    27 ar  
    45    26    28 1   
    46    27    30 1   
    47    28    29 1   
    48    28    45 1   
    49    29    30 2   
    50    30    46 1   
@<TRIPOS>SUBSTRUCTURE
     1 4DO         1 TEMP              0 ****  ****    0 ROOT
