@<TRIPOS>MOLECULE
4DP
   34    35     1     0     0
SMALL
bcc


@<TRIPOS>ATOM
      1 OAP        -25.5780    64.3310    13.3300 o          1 4DP      -0.579500
      2 CAJ        -26.7400    64.2560    13.6470 c          1 4DP       0.715100
      3 CAL        -27.7200    65.3630    13.8050 ca         1 4DP      -0.093600
      4 CAG        -27.5290    66.7090    13.6410 ca         1 4DP      -0.162000
      5 CAH        -28.6370    67.5710    13.8440 ca         1 4DP       0.208600
      6 NAM        -28.5060    68.9120    13.7040 nh         1 4DP      -0.695000
      7 CAD        -29.6500    69.7780    13.8830 c3         1 4DP       0.222600
      8 CAC        -27.2350    69.4790    13.3100 c3         1 4DP       0.222600
      9 CAE        -29.8810    66.9890    14.1980 ca         1 4DP      -0.227000
     10 CAF        -30.0340    65.6230    14.3550 ca         1 4DP      -0.020000
     11 CAK        -28.9370    64.8050    14.1580 ca         1 4DP      -0.206600
     12 CAI        -28.7700    63.3500    14.2380 c          1 4DP       0.729100
     13 OAO        -29.5840    62.4990    14.5080 o          1 4DP      -0.561500
     14 NAN        -27.4340    63.0940    13.9250 n          1 4DP      -0.512400
     15 CB         -26.8590    61.7660    13.8890 c3         1 4DP       0.070000
     16 CA         -26.5080    61.2060    15.2820 c3         1 4DP       0.006500
     17 C          -25.8490    59.8230    15.0430 c          1 4DP       0.938600
     18 O          -24.6290    59.7220    15.2660 o          1 4DP      -0.827800
     19 N          -25.6830    62.0730    16.0960 n8         1 4DP      -0.873800
     20 OXT        -26.6130    58.9430    14.5990 o          1 4DP      -0.827800
     21 HAG        -26.5560    67.0880    13.3620 ha         1 4DP       0.149000
     22 HAD1       -30.0770    69.6870    14.8840 h1         1 4DP       0.035700
     23 HAD2       -29.3420    70.8100    13.7500 h1         1 4DP       0.035700
     24 HAD3       -30.4410    69.5690    13.1570 h1         1 4DP       0.035700
     25 HAC1       -26.9090    69.1180    12.3300 h1         1 4DP       0.035700
     26 HAC2       -27.3280    70.5590    13.2510 h1         1 4DP       0.035700
     27 HAC3       -26.4480    69.2530    14.0330 h1         1 4DP       0.035700
     28 HAE        -30.7460    67.6180    14.3510 ha         1 4DP       0.126000
     29 HAF        -31.0020    65.2190    14.6250 ha         1 4DP       0.144000
     30 HB3        -27.5570    61.1000    13.3830 h1         1 4DP       0.070200
     31 HB2        -25.9590    61.8230    13.2740 h1         1 4DP       0.070200
     32 HA         -27.4490    61.0430    15.8170 h1         1 4DP       0.056700
     33 H          -24.7800    62.2010    15.6570 hn         1 4DP       0.321800
     34 H2         -26.1040    62.9890    16.1860 hn         1 4DP       0.321800
@<TRIPOS>BOND
     1     1     2 2   
     2     2     3 1   
     3     2    14 1   
     4     3     4 ar  
     5     3    11 ar  
     6     4     5 ar  
     7     4    21 1   
     8     5     6 1   
     9     5     9 ar  
    10     6     7 1   
    11     6     8 1   
    12     7    22 1   
    13     7    23 1   
    14     7    24 1   
    15     8    25 1   
    16     8    26 1   
    17     8    27 1   
    18     9    10 ar  
    19     9    28 1   
    20    10    11 ar  
    21    10    29 1   
    22    11    12 1   
    23    12    13 2   
    24    12    14 1   
    25    14    15 1   
    26    15    16 1   
    27    15    30 1   
    28    15    31 1   
    29    16    17 1   
    30    16    19 1   
    31    16    32 1   
    32    17    18 1   
    33    17    20 1   
    34    19    33 1   
    35    19    34 1   
@<TRIPOS>SUBSTRUCTURE
     1 4DP         1 TEMP              0 ****  ****    0 ROOT
