@<TRIPOS>MOLECULE
4DQ
   49    53     1     0     0
SMALL
abcg2


@<TRIPOS>ATOM
      1 F2          31.0890    37.9250    33.6000 f          1 4DQ      -0.159000
      2 C20         32.2230    38.6490    33.7500 ca         1 4DQ      -0.033000
      3 C10         33.3120    38.5080    32.8690 ca         1 4DQ       0.400900
      4 N1          33.3020    37.6880    31.7750 nh         1 4DQ      -0.801100
      5 C3          32.1070    37.4830    31.0330 ca         1 4DQ       0.352000
      6 C9          31.7430    36.1940    30.6010 ca         1 4DQ      -0.231900
      7 C8          32.2620    34.8760    30.7470 cc         1 4DQ       0.367800
      8 N3          31.4930    33.9950    30.1330 nd         1 4DQ      -0.512100
      9 N2          30.4730    34.6930    29.5820 na         1 4DQ      -0.074400
     10 C7          30.5660    36.0270    29.8330 ca         1 4DQ      -0.020200
     11 C6          29.7310    37.0970    29.4880 ca         1 4DQ      -0.137000
     12 C5          30.1150    38.3460    29.9300 ca         1 4DQ      -0.055000
     13 C4          31.2900    38.5430    30.6830 ca         1 4DQ      -0.164000
     14 C2          34.5800    37.3830    31.0970 c3         1 4DQ       0.230800
     15 C1          35.4860    36.4650    31.9030 c3         1 4DQ      -0.109100
     16 C19         32.3360    39.5070    34.8130 ca         1 4DQ       0.133900
     17 N7          33.4540    40.1950    35.0660 nb         1 4DQ      -0.247000
     18 C11         34.4670    39.9730    34.2160 ca         1 4DQ       0.403900
     19 N4          34.4350    39.1810    33.1460 nb         1 4DQ      -0.297000
     20 N5          35.6170    40.6660    34.5130 nu         1 4DQ      -0.933900
     21 C12         36.8720    40.6590    33.9170 ca         1 4DQ       0.319000
     22 C18         37.2600    39.7760    32.9040 ca         1 4DQ      -0.023000
     23 C17         38.5620    39.8730    32.4380 ca         1 4DQ      -0.260500
     24 S1          39.2640    38.9250    31.1280 sy         1 4DQ       1.134600
     25 O1          38.7340    39.3970    29.8680 o          1 4DQ      -0.532500
     26 O2          39.2420    37.4960    31.3520 o          1 4DQ      -0.532500
     27 N6          40.8150    39.4920    31.3460 n7         1 4DQ      -0.821300
     28 C16         40.8260    40.7110    32.1900 c5         1 4DQ       0.229100
     29 C15         39.4920    40.7880    32.8920 ca         1 4DQ      -0.099300
     30 C14         39.0950    41.6740    33.8900 ca         1 4DQ      -0.063000
     31 C13         37.8080    41.6010    34.3940 ca         1 4DQ      -0.126000
     32 H10         33.1460    34.5500    31.2690 h4         1 4DQ       0.054800
     33 H1          29.7570    34.2090    29.0640 hn         1 4DQ       0.378000
     34 H9          28.8320    36.9490    28.9050 ha         1 4DQ       0.124000
     35 H8          29.5070    39.2080    29.6850 ha         1 4DQ       0.119000
     36 H7          31.5610    39.5440    30.9930 ha         1 4DQ       0.123000
     37 H6          34.3190    36.9180    30.1500 h1         1 4DQ       0.059700
     38 H5          35.0880    38.3230    30.8690 h1         1 4DQ       0.059700
     39 H4          36.4140    36.2970    31.3530 hc         1 4DQ       0.050033
     40 H3          35.7380    36.9020    32.8680 hc         1 4DQ       0.050033
     41 H2          35.0100    35.4990    32.0760 hc         1 4DQ       0.050033
     42 H18         31.5000    39.6300    35.4930 h4         1 4DQ       0.040100
     43 H11         35.5090    41.2830    35.3040 hn         1 4DQ       0.515000
     44 H17         36.5700    39.0530    32.5100 ha         1 4DQ       0.164000
     45 H16         41.3840    38.7470    31.7350 hn         1 4DQ       0.475000
     46 H15         41.6560    40.6390    32.8910 h1         1 4DQ       0.080700
     47 H14         40.9850    41.5910    31.5640 h1         1 4DQ       0.080700
     48 H13         39.7850    42.4140    34.2780 ha         1 4DQ       0.122000
     49 H12         37.5050    42.2820    35.1790 ha         1 4DQ       0.119000
@<TRIPOS>BOND
     1     1     2 1   
     2     2     3 ar  
     3     2    16 ar  
     4     3     4 1   
     5     3    19 ar  
     6     4     5 1   
     7     4    14 1   
     8     5     6 ar  
     9     5    13 ar  
    10     6     7 1   
    11     6    10 ar  
    12     7     8 2   
    13     7    32 1   
    14     8     9 1   
    15     9    10 1   
    16     9    33 1   
    17    10    11 ar  
    18    11    12 ar  
    19    11    34 1   
    20    12    13 ar  
    21    12    35 1   
    22    13    36 1   
    23    14    15 1   
    24    14    37 1   
    25    14    38 1   
    26    15    39 1   
    27    15    40 1   
    28    15    41 1   
    29    16    17 ar  
    30    16    42 1   
    31    17    18 ar  
    32    18    19 ar  
    33    18    20 1   
    34    20    21 1   
    35    20    43 1   
    36    21    22 ar  
    37    21    31 ar  
    38    22    23 ar  
    39    22    44 1   
    40    23    24 1   
    41    23    29 ar  
    42    24    25 2   
    43    24    26 2   
    44    24    27 1   
    45    27    28 1   
    46    27    45 1   
    47    28    29 1   
    48    28    46 1   
    49    28    47 1   
    50    29    30 ar  
    51    30    31 ar  
    52    30    48 1   
    53    31    49 1   
@<TRIPOS>SUBSTRUCTURE
     1 4DQ         1 TEMP              0 ****  ****    0 ROOT
