@<TRIPOS>MOLECULE
4DQ
   49    53     1     0     0
SMALL
No Charge or Current Charge


@<TRIPOS>ATOM
      1 F2          31.1660    37.5710    33.7400 f          1 4DQ      -0.159000
      2 C20         32.2970    38.3020    33.9020 ca         1 4DQ      -0.033000
      3 C10         33.3540    38.2880    32.9580 ca         1 4DQ       0.400900
      4 N1          33.3000    37.5430    31.7480 nh         1 4DQ      -0.801100
      5 C3          32.1130    37.5270    30.9830 ca         1 4DQ       0.352000
      6 C9          31.5890    36.3500    30.4360 ca         1 4DQ      -0.231900
      7 C8          32.0130    34.9780    30.5180 cc         1 4DQ       0.367800
      8 N3          31.1820    34.1560    29.8540 nd         1 4DQ      -0.512100
      9 N2          30.2080    35.0250    29.3440 na         1 4DQ      -0.074400
     10 C7          30.4470    36.3340    29.6990 ca         1 4DQ      -0.020200
     11 C6          29.7160    37.4960    29.4310 ca         1 4DQ      -0.137000
     12 C5          30.2070    38.7080    29.9600 ca         1 4DQ      -0.055000
     13 C4          31.3960    38.7190    30.7310 ca         1 4DQ      -0.164000
     14 C2          34.5510    37.0370    31.1250 c3         1 4DQ       0.230800
     15 C1          35.3300    36.0350    32.0000 c3         1 4DQ      -0.109100
     16 C19         32.4590    39.0930    35.0510 ca         1 4DQ       0.133900
     17 N7          33.5790    39.8150    35.2540 nb         1 4DQ      -0.247000
     18 C11         34.5280    39.7270    34.3090 ca         1 4DQ       0.403900
     19 N4          34.4690    39.0140    33.1730 nb         1 4DQ      -0.297000
     20 N5          35.6520    40.5060    34.5380 nu         1 4DQ      -0.933900
     21 C12         36.8930    40.6520    33.8980 ca         1 4DQ       0.319000
     22 C18         37.4850    39.6160    33.1380 ca         1 4DQ      -0.023000
     23 C17         38.7340    39.8450    32.5360 ca         1 4DQ      -0.260500
     24 S1          39.6690    38.7020    31.5650 sy         1 4DQ       1.134600
     25 O1          39.0480    38.4840    30.2550 o          1 4DQ      -0.532500
     26 O2          40.1340    37.6070    32.4180 o          1 4DQ      -0.532500
     27 N6          40.9650    39.7300    31.3600 n7         1 4DQ      -0.821300
     28 C16         40.7440    41.0930    31.9360 c5         1 4DQ       0.229100
     29 C15         39.4120    41.0480    32.6760 ca         1 4DQ      -0.099300
     30 C14         38.8440    42.0800    33.4410 ca         1 4DQ      -0.063000
     31 C13         37.5890    41.8730    34.0520 ca         1 4DQ      -0.126000
     32 H10         32.8580    34.5250    31.0170 h4         1 4DQ       0.054800
     33 H1          29.4260    34.6860    28.7840 hn         1 4DQ       0.378000
     34 H9          28.8010    37.4680    28.8420 ha         1 4DQ       0.124000
     35 H8          29.6700    39.6360    29.7760 ha         1 4DQ       0.119000
     36 H7          31.7640    39.6610    31.1260 ha         1 4DQ       0.123000
     37 H6          34.3200    36.5410    30.1720 h1         1 4DQ       0.059700
     38 H5          35.2090    37.8790    30.8700 h1         1 4DQ       0.059700
     39 H4          36.2120    35.6710    31.4620 hc         1 4DQ       0.050033
     40 H3          35.6690    36.5010    32.9320 hc         1 4DQ       0.050033
     41 H2          34.7040    35.1730    32.2580 hc         1 4DQ       0.050033
     42 H18         31.6880    39.1490    35.8170 h4         1 4DQ       0.040100
     43 H11         35.5050    41.1710    35.2980 hn         1 4DQ       0.515000
     44 H17         37.0000    38.6520    33.0340 ha         1 4DQ       0.164000
     45 H16         41.6470    39.2280    31.9260 hn         1 4DQ       0.475000
     46 H15         41.5650    41.3870    32.6060 h1         1 4DQ       0.080700
     47 H14         40.6920    41.8430    31.1340 h1         1 4DQ       0.080700
     48 H13         39.3640    43.0290    33.5600 ha         1 4DQ       0.122000
     49 H12         37.1500    42.6730    34.6410 ha         1 4DQ       0.119000
@<TRIPOS>BOND
     1     1     2 1   
     2     2     3 ar  
     3     2    16 ar  
     4     3     4 1   
     5     3    19 ar  
     6     4     5 1   
     7     4    14 1   
     8     5     6 ar  
     9     5    13 ar  
    10     6     7 1   
    11     6    10 ar  
    12     7     8 2   
    13     7    32 1   
    14     8     9 1   
    15     9    10 1   
    16     9    33 1   
    17    10    11 ar  
    18    11    12 ar  
    19    11    34 1   
    20    12    13 ar  
    21    12    35 1   
    22    13    36 1   
    23    14    15 1   
    24    14    37 1   
    25    14    38 1   
    26    15    39 1   
    27    15    40 1   
    28    15    41 1   
    29    16    17 ar  
    30    16    42 1   
    31    17    18 ar  
    32    18    19 ar  
    33    18    20 1   
    34    20    21 1   
    35    20    43 1   
    36    21    22 ar  
    37    21    31 ar  
    38    22    23 ar  
    39    22    44 1   
    40    23    24 1   
    41    23    29 ar  
    42    24    25 2   
    43    24    26 2   
    44    24    27 1   
    45    27    28 1   
    46    27    45 1   
    47    28    29 1   
    48    28    46 1   
    49    28    47 1   
    50    29    30 ar  
    51    30    31 ar  
    52    30    48 1   
    53    31    49 1   
@<TRIPOS>SUBSTRUCTURE
     1 4DQ         1 TEMP              0 ****  ****    0 ROOT
