@<TRIPOS>MOLECULE
4DS
   36    37     1     0     0
SMALL
No Charge or Current Charge


@<TRIPOS>ATOM
      1 OAA          1.7070    -3.4380    -1.0170 o          1 4DS      -0.690533
      2 SAB          2.1670    -3.1590     0.3510 s6         1 4DS       1.260100
      3 OAC          1.1030    -2.9800     1.3500 o          1 4DS      -0.690533
      4 OAD          3.3460    -3.9170     0.7970 o          1 4DS      -0.690533
      5 CAE          2.8250    -1.4270     0.1710 ca         1 4DS      -0.205500
      6 CAF          4.2190    -1.2020     0.3040 ca         1 4DS      -0.031000
      7 CAG          4.7640     0.0870     0.1900 ca         1 4DS       0.183400
      8 CAH          3.9180     1.1740    -0.0620 ca         1 4DS      -0.097500
      9 CAI          2.5360     0.9730    -0.2010 ca         1 4DS      -0.114500
     10 CAJ          1.9740    -0.3170    -0.0880 ca         1 4DS       0.059700
     11 CAK          0.4970    -0.4550    -0.2610 ce         1 4DS      -0.145700
     12 CAL         -0.4760     0.4270     0.1160 cf         1 4DS      -0.145700
     13 CAM         -1.9470     0.3150    -0.0320 ca         1 4DS       0.059700
     14 CAN         -2.8110     1.4500    -0.0450 ca         1 4DS      -0.205500
     15 CAO         -4.2080     1.2450    -0.1700 ca         1 4DS      -0.031000
     16 CAP         -4.7510    -0.0440    -0.2870 ca         1 4DS       0.183400
     17 CAQ         -3.8990    -1.1530    -0.2770 ca         1 4DS      -0.097500
     18 CAR         -2.5130    -0.9750    -0.1490 ca         1 4DS      -0.114500
     19 NAS         -6.1380    -0.2220    -0.4100 ne         1 4DS      -0.532300
     20 CAT         -7.2300    -0.4470     0.0470 c1         1 4DS       0.410900
     21 SAU         -8.6210    -0.7650     0.7550 s          1 4DS      -0.324500
     22 SAV         -2.1710     3.1950     0.0790 s6         1 4DS       1.260100
     23 OAW         -3.3690     4.0090    -0.1770 o          1 4DS      -0.690533
     24 OAX         -1.6650     3.2220     1.4600 o          1 4DS      -0.690533
     25 OAY         -1.1420     3.2200    -0.9700 o          1 4DS      -0.690533
     26 NAZ          6.1470     0.2870     0.3240 ne         1 4DS      -0.532300
     27 CBA          7.2550     0.4200    -0.1290 c1         1 4DS       0.410900
     28 SBB          8.6710     0.5930    -0.8370 s          1 4DS      -0.324500
     29 HAF          4.8970    -2.0280     0.4980 ha         1 4DS       0.146000
     30 HAH          4.3330     2.1750    -0.1550 ha         1 4DS       0.110000
     31 HAI          1.9000     1.8280    -0.4140 ha         1 4DS       0.144000
     32 HAK          0.1890    -1.3660    -0.7700 ha         1 4DS       0.209000
     33 HAL         -0.1350     1.3250     0.6280 ha         1 4DS       0.209000
     34 HAR         -1.8800    -1.8580    -0.1200 ha         1 4DS       0.144000
     35 HAO         -4.8930     2.0880    -0.1800 ha         1 4DS       0.146000
     36 HAQ         -4.3110    -2.1550    -0.3620 ha         1 4DS       0.110000
@<TRIPOS>BOND
     1     1     2 1   
     2     2     3 1   
     3     2     4 1   
     4     2     5 1   
     5     5     6 ar  
     6     5    10 ar  
     7     6     7 ar  
     8     6    29 1   
     9     7     8 ar  
    10     7    26 1   
    11     8     9 ar  
    12     8    30 1   
    13     9    10 ar  
    14     9    31 1   
    15    10    11 1   
    16    11    12 2   
    17    11    32 1   
    18    12    13 1   
    19    12    33 1   
    20    13    14 ar  
    21    13    18 ar  
    22    14    15 ar  
    23    14    22 1   
    24    15    16 ar  
    25    15    35 1   
    26    16    17 ar  
    27    16    19 1   
    28    17    18 ar  
    29    17    36 1   
    30    18    34 1   
    31    19    20 2   
    32    20    21 2   
    33    22    23 1   
    34    22    24 1   
    35    22    25 1   
    36    26    27 2   
    37    27    28 2   
@<TRIPOS>SUBSTRUCTURE
     1 4DS         1 TEMP              0 ****  ****    0 ROOT
