@<TRIPOS>MOLECULE
4DS
   36    37     1     0     0
SMALL
abcg2


@<TRIPOS>ATOM
      1 OAA          1.5270    -3.2890    -1.3040 o          1 4DS      -0.690533
      2 SAB          2.1210    -3.0520     0.0230 s6         1 4DS       1.260100
      3 OAC          1.1340    -3.0410     1.1130 o          1 4DS      -0.690533
      4 OAD          3.2910    -3.9010     0.2960 o          1 4DS      -0.690533
      5 CAE          2.7610    -1.3690    -0.0540 ca         1 4DS      -0.205500
      6 CAF          4.1300    -1.1860     0.0230 ca         1 4DS      -0.031000
      7 CAG          4.6620     0.1010    -0.0270 ca         1 4DS       0.183400
      8 CAH          3.8240     1.2050    -0.1550 ca         1 4DS      -0.097500
      9 CAI          2.4590     1.0060    -0.2300 ca         1 4DS      -0.114500
     10 CAJ          1.8940    -0.2710    -0.1710 ca         1 4DS       0.059700
     11 CAK          0.4410    -0.4310    -0.2490 ce         1 4DS      -0.145700
     12 CAL         -0.4240     0.4600     0.2430 cf         1 4DS      -0.145700
     13 CAM         -1.8770     0.2940     0.1670 ca         1 4DS       0.059700
     14 CAN         -2.7500     1.3870     0.0480 ca         1 4DS      -0.205500
     15 CAO         -4.1180     1.1960    -0.0280 ca         1 4DS      -0.031000
     16 CAP         -4.6430    -0.0930     0.0260 ca         1 4DS       0.183400
     17 CAQ         -3.7990    -1.1920     0.1570 ca         1 4DS      -0.097500
     18 CAR         -2.4350    -0.9860     0.2320 ca         1 4DS      -0.114500
     19 NAS         -5.9930    -0.2750    -0.0430 ne         1 4DS      -0.532300
     20 CAT         -7.1520    -0.4240    -0.1010 c1         1 4DS       0.410900
     21 SAU         -8.7220    -0.6290    -0.1790 s          1 4DS      -0.324500
     22 SAV         -2.1190     3.0740    -0.0310 s6         1 4DS       1.260100
     23 OAW         -3.2930     3.9160    -0.3050 o          1 4DS      -0.690533
     24 OAX         -1.5270     3.3150     1.2960 o          1 4DS      -0.690533
     25 OAY         -1.1310     3.0660    -1.1210 o          1 4DS      -0.690533
     26 NAZ          6.0130     0.2750     0.0430 ne         1 4DS      -0.532300
     27 CBA          7.1780     0.3750     0.1040 c1         1 4DS       0.410900
     28 SBB          8.7530     0.5210     0.1860 s          1 4DS      -0.324500
     29 HAF          4.7930    -2.0330     0.1230 ha         1 4DS       0.146000
     30 HAH          4.2390     2.2020    -0.2080 ha         1 4DS       0.110000
     31 HAI          1.8130     1.8640    -0.3670 ha         1 4DS       0.144000
     32 HAK          0.0720    -1.3150    -0.7540 ha         1 4DS       0.209000
     33 HAL         -0.0570     1.3450     0.7470 ha         1 4DS       0.209000
     34 HAR         -1.7840    -1.8390     0.3720 ha         1 4DS       0.144000
     35 HAO         -4.7870     2.0390    -0.1300 ha         1 4DS       0.146000
     36 HAQ         -4.2080    -2.1910     0.2140 ha         1 4DS       0.110000
@<TRIPOS>BOND
     1     1     2 1   
     2     2     3 1   
     3     2     4 1   
     4     2     5 1   
     5     5     6 ar  
     6     5    10 ar  
     7     6     7 ar  
     8     6    29 1   
     9     7     8 ar  
    10     7    26 1   
    11     8     9 ar  
    12     8    30 1   
    13     9    10 ar  
    14     9    31 1   
    15    10    11 1   
    16    11    12 2   
    17    11    32 1   
    18    12    13 1   
    19    12    33 1   
    20    13    14 ar  
    21    13    18 ar  
    22    14    15 ar  
    23    14    22 1   
    24    15    16 ar  
    25    15    35 1   
    26    16    17 ar  
    27    16    19 1   
    28    17    18 ar  
    29    17    36 1   
    30    18    34 1   
    31    19    20 2   
    32    20    21 2   
    33    22    23 1   
    34    22    24 1   
    35    22    25 1   
    36    26    27 2   
    37    27    28 2   
@<TRIPOS>SUBSTRUCTURE
     1 4DS         1 TEMP              0 ****  ****    0 ROOT
