@<TRIPOS>MOLECULE
4DT
   58    62     1     0     0
SMALL
abcg2


@<TRIPOS>ATOM
      1 F1          -2.6750     0.1350     2.1830 f          1 4DT      -0.163000
      2 C23         -1.6890     0.5310     1.3590 ca         1 4DT      -0.046000
      3 C10         -1.9600     1.1430     0.1190 ca         1 4DT       0.400900
      4 N1          -3.2220     1.3510    -0.3490 nh         1 4DT      -0.802100
      5 C3          -4.2870     0.4940     0.0170 ca         1 4DT       0.355000
      6 C9          -4.1660    -0.8990    -0.1180 ca         1 4DT      -0.244900
      7 C8          -3.1590    -1.8000    -0.5560 cc         1 4DT       0.360800
      8 N3          -3.5800    -3.0380    -0.4750 nd         1 4DT      -0.515100
      9 N2          -4.8250    -2.9930    -0.0010 na         1 4DT      -0.062400
     10 C7          -5.2440    -1.7280     0.2340 ca         1 4DT      -0.026200
     11 C6          -6.4650    -1.2200     0.6910 ca         1 4DT      -0.135000
     12 C5          -6.5620     0.1500     0.7850 ca         1 4DT      -0.063000
     13 C4          -5.4890     1.0010     0.4570 ca         1 4DT      -0.148000
     14 C2          -3.4290     2.1840    -1.5340 c3         1 4DT       0.235800
     15 C1          -3.3120     1.4150    -2.8390 c3         1 4DT      -0.118100
     16 C22         -0.3830     0.3870     1.7350 ca         1 4DT       0.126900
     17 N8           0.6360     0.8230     0.9990 nb         1 4DT      -0.233000
     18 C11          0.3040     1.4110    -0.1430 ca         1 4DT       0.412900
     19 N4          -0.9390     1.5780    -0.6030 nb         1 4DT      -0.319000
     20 N5           1.2830     1.9040    -0.9460 nu         1 4DT      -0.807900
     21 C12          2.6740     1.8220    -0.7340 ce         1 4DT       0.221000
     22 C21          3.2370     0.5160    -0.4480 ce         1 4DT      -0.290000
     23 C20          4.5780     0.4750    -0.2150 cd         1 4DT       0.009000
     24 C15          5.4370     1.6300    -0.3000 cd         1 4DT      -0.151300
     25 C14          4.9240     2.9320    -0.8350 c6         1 4DT       0.060100
     26 C13          3.4170     2.9380    -0.8780 c2         1 4DT      -0.319200
     27 N7           5.3540    -0.5640     0.2100 na         1 4DT      -0.148000
     28 N6           6.6050    -0.0740     0.5920 na         1 4DT      -0.165000
     29 C16          6.6380     1.2410     0.1660 cc         1 4DT      -0.150000
     30 C17          4.8160    -1.7260     0.8810 c3         1 4DT       0.081600
     31 C18          4.5850    -2.8870    -0.0760 c3         1 4DT      -0.097400
     32 C19          3.9000    -4.0460     0.6210 c3         1 4DT       0.165600
     33 O1           3.7250    -5.0940    -0.3070 oh         1 4DT      -0.659000
     34 H10         -2.1680    -1.5840    -0.9250 h4         1 4DT       0.054800
     35 H9          -5.3370    -3.8490     0.1380 hn         1 4DT       0.376000
     36 H8          -7.2910    -1.8660     0.9540 ha         1 4DT       0.122000
     37 H7          -7.4860     0.5920     1.1330 ha         1 4DT       0.116000
     38 H6          -5.6130     2.0710     0.5680 ha         1 4DT       0.124000
     39 H__4        -4.4210     2.6260    -1.4460 h1         1 4DT       0.058200
     40 H__5        -2.7120     3.0020    -1.5070 h1         1 4DT       0.058200
     41 H__1        -2.3140     0.9980    -2.9620 hc         1 4DT       0.045033
     42 H__2        -4.0350     0.5990    -2.8880 hc         1 4DT       0.045033
     43 H__3        -3.5060     2.0820    -3.6790 hc         1 4DT       0.045033
     44 H24         -0.1470    -0.0780     2.6870 h4         1 4DT       0.032100
     45 H11          0.9650     2.5200    -1.6760 hn         1 4DT       0.507000
     46 H23          2.5990    -0.3510    -0.3720 ha         1 4DT       0.202000
     47 H13          5.2880     3.7700    -0.2340 hc         1 4DT       0.049700
     48 H1           5.3310     3.1080    -1.8400 hc         1 4DT       0.049700
     49 H12          2.9290     3.8850    -1.0770 ha         1 4DT       0.177000
     50 H15          7.3670    -0.6600     0.2640 hn         1 4DT       0.300000
     51 H14          7.5630     1.7920     0.2470 h4         1 4DT       0.151000
     52 H1_7         5.5080    -2.0140     1.6740 h1         1 4DT       0.056200
     53 H1_6         3.8760    -1.4410     1.3690 h1         1 4DT       0.056200
     54 H1_8         3.9690    -2.5520    -0.9160 hc         1 4DT       0.062700
     55 H1_9         5.5440    -3.2140    -0.4880 hc         1 4DT       0.062700
     56 H2_0         4.5060    -4.3660     1.4790 h1         1 4DT       0.016700
     57 H2_1         2.9380    -3.7040     1.0260 h1         1 4DT       0.016700
     58 H22          3.2520    -5.8060     0.1320 ho         1 4DT       0.444000
@<TRIPOS>BOND
     1     1     2 1   
     2     2     3 ar  
     3     2    16 ar  
     4     3     4 1   
     5     3    19 ar  
     6     4     5 1   
     7     4    14 1   
     8     5     6 ar  
     9     5    13 ar  
    10     6     7 1   
    11     6    10 ar  
    12     7     8 2   
    13     7    34 1   
    14     8     9 1   
    15     9    10 1   
    16     9    35 1   
    17    10    11 ar  
    18    11    12 ar  
    19    11    36 1   
    20    12    13 ar  
    21    12    37 1   
    22    13    38 1   
    23    14    15 1   
    24    14    39 1   
    25    14    40 1   
    26    15    41 1   
    27    15    42 1   
    28    15    43 1   
    29    16    17 ar  
    30    16    44 1   
    31    17    18 ar  
    32    18    19 ar  
    33    18    20 1   
    34    20    21 1   
    35    20    45 1   
    36    21    22 1   
    37    21    26 2   
    38    22    23 2   
    39    22    46 1   
    40    23    24 1   
    41    23    27 1   
    42    24    25 1   
    43    24    29 2   
    44    25    26 1   
    45    25    47 1   
    46    25    48 1   
    47    26    49 1   
    48    27    28 1   
    49    27    30 1   
    50    28    29 1   
    51    28    50 1   
    52    29    51 1   
    53    30    31 1   
    54    30    52 1   
    55    30    53 1   
    56    31    32 1   
    57    31    54 1   
    58    31    55 1   
    59    32    33 1   
    60    32    56 1   
    61    32    57 1   
    62    33    58 1   
@<TRIPOS>SUBSTRUCTURE
     1 4DT         1 TEMP              0 ****  ****    0 ROOT
