@<TRIPOS>MOLECULE
4DT
   58    62     1     0     0
SMALL
No Charge or Current Charge


@<TRIPOS>ATOM
      1 F1          -2.8240     0.5560     2.3370 f          1 4DT      -0.163000
      2 C23         -1.8180     0.7710     1.4540 ca         1 4DT      -0.046000
      3 C10         -2.0500     1.2070     0.1230 ca         1 4DT       0.400900
      4 N1          -3.3490     1.4090    -0.4150 nh         1 4DT      -0.802100
      5 C3          -4.4240     0.5680    -0.0580 ca         1 4DT       0.355000
      6 C9          -4.3100    -0.8260    -0.1070 ca         1 4DT      -0.244900
      7 C8          -3.2250    -1.6850    -0.4990 cc         1 4DT       0.360800
      8 N3          -3.5600    -2.9840    -0.4100 nd         1 4DT      -0.515100
      9 N2          -4.8850    -2.9460     0.0460 na         1 4DT      -0.062400
     10 C7          -5.3350    -1.6550     0.2210 ca         1 4DT      -0.026200
     11 C6          -6.5820    -1.1720     0.6320 ca         1 4DT      -0.135000
     12 C5          -6.7460     0.2280     0.6940 ca         1 4DT      -0.063000
     13 C4          -5.6750     1.0890     0.3480 ca         1 4DT      -0.148000
     14 C2          -3.5770     2.4370    -1.4620 c3         1 4DT       0.235800
     15 C1          -3.7380     1.8390    -2.8710 c3         1 4DT      -0.118100
     16 C22         -0.4870     0.5880     1.8580 ca         1 4DT       0.126900
     17 N8           0.5400     0.8140     1.0180 nb         1 4DT      -0.233000
     18 C11          0.2180     1.2250    -0.2240 ca         1 4DT       0.412900
     19 N4          -1.0140     1.4350    -0.7100 nb         1 4DT      -0.319000
     20 N5           1.2450     1.4750    -1.1200 nu         1 4DT      -0.807900
     21 C12          2.6130     1.5870    -0.8960 ce         1 4DT       0.221000
     22 C21          3.2910     0.3580    -0.5010 ce         1 4DT      -0.290000
     23 C20          4.6110     0.3830    -0.1420 cd         1 4DT       0.009000
     24 C15          5.3770     1.5530    -0.2940 cd         1 4DT      -0.151300
     25 C14          4.8140     2.8360    -0.8760 c6         1 4DT       0.060100
     26 C13          3.3000     2.7300    -1.0870 c2         1 4DT      -0.319200
     27 N7           5.3810    -0.5820     0.4600 na         1 4DT      -0.148000
     28 N6           6.6340     0.0060     0.6410 na         1 4DT      -0.165000
     29 C16          6.6430     1.3320     0.1890 cc         1 4DT      -0.150000
     30 C17          4.9720    -1.8810     1.0190 c3         1 4DT       0.081600
     31 C18          4.9730    -3.0080    -0.0320 c3         1 4DT      -0.097400
     32 C19          4.5350    -4.3630     0.5520 c3         1 4DT       0.165600
     33 O1           4.5630    -5.3600    -0.4740 oh         1 4DT      -0.659000
     34 H10         -2.2270    -1.4530    -0.8460 h4         1 4DT       0.054800
     35 H9          -5.4200    -3.7970     0.2130 hn         1 4DT       0.376000
     36 H8          -7.3950    -1.8470     0.8890 ha         1 4DT       0.122000
     37 H7          -7.6990     0.6480     1.0090 ha         1 4DT       0.116000
     38 H6          -5.8150     2.1640     0.4110 ha         1 4DT       0.124000
     39 H__4        -4.4750     3.0230    -1.2230 h1         1 4DT       0.058200
     40 H__5        -2.7530     3.1630    -1.4770 h1         1 4DT       0.058200
     41 H__1        -2.8410     1.2770    -3.1560 hc         1 4DT       0.045033
     42 H__2        -4.6000     1.1630    -2.9100 hc         1 4DT       0.045033
     43 H__3        -3.8930     2.6370    -3.6060 hc         1 4DT       0.045033
     44 H24         -0.2370     0.2600     2.8660 h4         1 4DT       0.032100
     45 H11          0.9130     1.9890    -1.9340 hn         1 4DT       0.507000
     46 H23          2.7190    -0.5540    -0.3470 ha         1 4DT       0.202000
     47 H13          5.0310     3.6820    -0.2090 hc         1 4DT       0.049700
     48 H1           5.3020     3.0620    -1.8340 hc         1 4DT       0.049700
     49 H12          2.7920     3.6400    -1.4030 ha         1 4DT       0.177000
     50 H15          7.3910    -0.5680     0.9990 hn         1 4DT       0.300000
     51 H14          7.5140     1.9750     0.2460 h4         1 4DT       0.151000
     52 H1_7         5.6540    -2.1450     1.8380 h1         1 4DT       0.056200
     53 H1_6         3.9660    -1.7770     1.4450 h1         1 4DT       0.056200
     54 H1_8         4.3010    -2.7350    -0.8540 hc         1 4DT       0.062700
     55 H1_9         5.9800    -3.1040    -0.4560 hc         1 4DT       0.062700
     56 H2_0         5.2120    -4.6410     1.3710 h1         1 4DT       0.016700
     57 H2_1         3.5220    -4.2700     0.9650 h1         1 4DT       0.016700
     58 H22          4.2780    -6.2050    -0.0580 ho         1 4DT       0.444000
@<TRIPOS>BOND
     1     1     2 1   
     2     2     3 ar  
     3     2    16 ar  
     4     3     4 1   
     5     3    19 ar  
     6     4     5 1   
     7     4    14 1   
     8     5     6 ar  
     9     5    13 ar  
    10     6     7 1   
    11     6    10 ar  
    12     7     8 2   
    13     7    34 1   
    14     8     9 1   
    15     9    10 1   
    16     9    35 1   
    17    10    11 ar  
    18    11    12 ar  
    19    11    36 1   
    20    12    13 ar  
    21    12    37 1   
    22    13    38 1   
    23    14    15 1   
    24    14    39 1   
    25    14    40 1   
    26    15    41 1   
    27    15    42 1   
    28    15    43 1   
    29    16    17 ar  
    30    16    44 1   
    31    17    18 ar  
    32    18    19 ar  
    33    18    20 1   
    34    20    21 1   
    35    20    45 1   
    36    21    22 1   
    37    21    26 2   
    38    22    23 2   
    39    22    46 1   
    40    23    24 1   
    41    23    27 1   
    42    24    25 1   
    43    24    29 2   
    44    25    26 1   
    45    25    47 1   
    46    25    48 1   
    47    26    49 1   
    48    27    28 1   
    49    27    30 1   
    50    28    29 1   
    51    28    50 1   
    52    29    51 1   
    53    30    31 1   
    54    30    52 1   
    55    30    53 1   
    56    31    32 1   
    57    31    54 1   
    58    31    55 1   
    59    32    33 1   
    60    32    56 1   
    61    32    57 1   
    62    33    58 1   
@<TRIPOS>SUBSTRUCTURE
     1 4DT         1 TEMP              0 ****  ****    0 ROOT
