@<TRIPOS>MOLECULE
4DV
   69    73     1     0     0
SMALL
bcc


@<TRIPOS>ATOM
      1 O1          -6.4880     2.7760    -1.1260 o          1 4DV      -0.831800
      2 C7           0.9080    -0.9500     1.5960 ca         1 4DV      -0.116000
      3 O2          -6.4810     4.4290     0.3560 o          1 4DV      -0.831800
      4 C6           1.5940    -0.1380     0.6700 cp         1 4DV      -0.099000
      5 C1          -2.7200     1.2430    -0.1050 cc         1 4DV       0.012700
      6 N1          -2.5080     0.2760     0.8690 na         1 4DV      -0.057400
      7 C5           0.8750     0.7430    -0.1280 ca         1 4DV      -0.063000
      8 C4          -0.5120     0.8170     0.0010 ca         1 4DV      -0.087800
      9 C2          -1.5150     1.5920    -0.6600 cd         1 4DV      -0.164400
     10 C32         -5.3690    -3.4050    -1.1090 ca         1 4DV       0.030400
     11 C31         -4.0550    -3.0300    -1.3400 ca         1 4DV      -0.122000
     12 C30         -3.4610    -2.0940    -0.5060 ca         1 4DV      -0.102500
     13 C33         -6.0940    -2.8560    -0.0640 ca         1 4DV      -0.122000
     14 C34         -5.4850    -1.9190     0.7580 ca         1 4DV      -0.102500
     15 C29         -4.1650    -1.5300     0.5520 ca         1 4DV      -0.099300
     16 C28         -3.5290    -0.5300     1.4880 c3         1 4DV       0.090600
     17 C9          -1.1700    -0.0010     0.9410 ca         1 4DV      -0.047200
     18 C23         -4.0840     1.7500    -0.4420 c3         1 4DV      -0.018200
     19 C24         -4.5680     3.0060     0.3210 c3         1 4DV      -0.176000
     20 C27         -5.9730     3.4350    -0.2020 c          1 4DV       0.931600
     21 C26         -4.6810     2.7390     1.8230 c3         1 4DV      -0.063100
     22 C25         -3.6010     4.1720     0.1090 c3         1 4DV      -0.063100
     23 C8          -0.4650    -0.8980     1.7400 ca         1 4DV      -0.146000
     24 C10          3.0620    -0.2280     0.5500 cp         1 4DV       0.031000
     25 C15          3.8730    -0.3980     1.6730 ca         1 4DV      -0.148000
     26 C14          5.2510    -0.4660     1.5490 ca         1 4DV      -0.096000
     27 C13          5.8820    -0.3670     0.3100 cp         1 4DV      -0.097000
     28 C12          5.0510    -0.2170    -0.7900 ca         1 4DV       0.145900
     29 F1           5.6060    -0.1710    -2.0140 f          1 4DV      -0.147900
     30 C11          3.6780    -0.1430    -0.6990 ca         1 4DV      -0.174000
     31 C16          7.3540    -0.4600     0.1870 cp         1 4DV      -0.024000
     32 C21          8.1280     0.6210    -0.2590 ca         1 4DV      -0.048300
     33 C22          7.5150     1.9340    -0.6520 c3         1 4DV      -0.051800
     34 C20          9.5120     0.4640    -0.3200 ca         1 4DV      -0.136000
     35 C19         10.1270    -0.7240     0.0480 ca         1 4DV      -0.126000
     36 C18          9.3570    -1.7860     0.5000 ca         1 4DV      -0.139000
     37 C17          7.9790    -1.6470     0.5690 ca         1 4DV      -0.112000
     38 H1           1.4670    -1.6560     2.1980 ha         1 4DV       0.119000
     39 H3           1.3880     1.3870    -0.8330 ha         1 4DV       0.130000
     40 H4          -0.6040     2.1340    -2.5200 hc         1 4DV       0.033700
     41 H5          -2.1660     2.8930    -2.2440 hc         1 4DV       0.033700
     42 H6          -0.7480     3.4690    -1.3870 hc         1 4DV       0.033700
     43 H7          -3.4950    -3.4600    -2.1590 ha         1 4DV       0.143000
     44 H8          -2.4340    -1.8080    -0.6980 ha         1 4DV       0.143500
     45 H9          -7.1220    -3.1450     0.1070 ha         1 4DV       0.143000
     46 H10         -6.0580    -1.4820     1.5670 ha         1 4DV       0.143500
     47 H11         -3.0760    -1.0550     2.3310 h1         1 4DV       0.070700
     48 H12         -4.2960     0.1070     1.9240 h1         1 4DV       0.070700
     49 H13         -4.0970     1.9780    -1.5090 hc         1 4DV       0.067700
     50 H14         -4.8200     0.9530    -0.3100 hc         1 4DV       0.067700
     51 H15         -3.7230     2.4430     2.2560 hc         1 4DV       0.018200
     52 H16         -5.0100     3.6380     2.3440 hc         1 4DV       0.018200
     53 H17         -5.4100     1.9540     2.0430 hc         1 4DV       0.018200
     54 H18         -3.4950     4.4210    -0.9490 hc         1 4DV       0.018200
     55 H19         -3.9580     5.0630     0.6250 hc         1 4DV       0.018200
     56 H20         -2.6060     3.9380     0.4940 hc         1 4DV       0.018200
     57 H21         -0.9590    -1.5480     2.4520 ha         1 4DV       0.127000
     58 H22          3.4290    -0.4520     2.6590 ha         1 4DV       0.139000
     59 H23          5.8610    -0.5830     2.4360 ha         1 4DV       0.131000
     60 H24          3.0900    -0.0520    -1.6040 ha         1 4DV       0.155000
     61 H25          6.6840     2.2090    -0.0030 hc         1 4DV       0.046367
     62 H26          8.2520     2.7340    -0.6070 hc         1 4DV       0.046367
     63 H27          7.1310     1.9070    -1.6730 hc         1 4DV       0.046367
     64 H28         10.1190     1.2970    -0.6540 ha         1 4DV       0.125000
     65 H29         11.2040    -0.8150    -0.0100 ha         1 4DV       0.125000
     66 H30          9.8220    -2.7160     0.7980 ha         1 4DV       0.127000
     67 H31          7.3730    -2.4740     0.9160 ha         1 4DV       0.133000
     68 C3          -1.2490     2.5700    -1.7540 c3         1 4DV      -0.008900
     69 CL1         -6.1190    -4.5710    -2.1510 cl         1 4DV      -0.131400
@<TRIPOS>BOND
     1     1    20 1   
     2     2     4 ar  
     3     2    23 ar  
     4     2    38 1   
     5     3    20 1   
     6     4     7 ar  
     7     4    24 1   
     8     5     6 1   
     9     5     9 2   
    10     5    18 1   
    11     6    16 1   
    12     6    17 1   
    13     7     8 ar  
    14     7    39 1   
    15     8     9 1   
    16     8    17 ar  
    17     9    68 1   
    18    10    11 ar  
    19    10    13 ar  
    20    10    69 1   
    21    11    12 ar  
    22    11    43 1   
    23    12    15 ar  
    24    12    44 1   
    25    13    14 ar  
    26    13    45 1   
    27    14    15 ar  
    28    14    46 1   
    29    15    16 1   
    30    16    47 1   
    31    16    48 1   
    32    17    23 ar  
    33    18    19 1   
    34    18    49 1   
    35    18    50 1   
    36    19    20 1   
    37    19    21 1   
    38    19    22 1   
    39    21    51 1   
    40    21    52 1   
    41    21    53 1   
    42    22    54 1   
    43    22    55 1   
    44    22    56 1   
    45    23    57 1   
    46    24    25 ar  
    47    24    30 ar  
    48    25    26 ar  
    49    25    58 1   
    50    26    27 ar  
    51    26    59 1   
    52    27    28 ar  
    53    27    31 1   
    54    28    29 1   
    55    28    30 ar  
    56    30    60 1   
    57    31    32 ar  
    58    31    37 ar  
    59    32    33 1   
    60    32    34 ar  
    61    33    61 1   
    62    33    62 1   
    63    33    63 1   
    64    34    35 ar  
    65    34    64 1   
    66    35    36 ar  
    67    35    65 1   
    68    36    37 ar  
    69    36    66 1   
    70    37    67 1   
    71    40    68 1   
    72    41    68 1   
    73    42    68 1   
@<TRIPOS>SUBSTRUCTURE
     1 4DV         1 TEMP              0 ****  ****    0 ROOT
