@<TRIPOS>MOLECULE
4DV
   69    73     1     0     0
SMALL
No Charge or Current Charge


@<TRIPOS>ATOM
      1 O1          -6.4080     3.2670    -1.3960 o          1 4DV      -0.726500
      2 C7           0.8930    -1.0280     1.5150 ca         1 4DV      -0.098000
      3 O2          -6.8610     4.0670     0.5350 o          1 4DV      -0.726500
      4 C6           1.6040    -0.1670     0.6250 cp         1 4DV      -0.099000
      5 C1          -2.7980     1.3150    -0.1300 cc         1 4DV       0.012700
      6 N1          -2.5630     0.2590     0.7820 na         1 4DV      -0.086700
      7 C5           0.8560     0.7690    -0.1410 ca         1 4DV      -0.045000
      8 C4          -0.5360     0.8100     0.0100 ca         1 4DV      -0.087800
      9 C2          -1.5350     1.6350    -0.6310 cd         1 4DV      -0.164400
     10 C32         -5.4500    -3.6380    -0.9280 ca         1 4DV       0.122000
     11 C31         -4.0710    -3.4030    -1.0480 ca         1 4DV      -0.104000
     12 C30         -3.4570    -2.4090    -0.2670 ca         1 4DV      -0.084500
     13 C33         -6.2160    -2.8820    -0.0280 ca         1 4DV      -0.104000
     14 C34         -5.6040    -1.8860     0.7530 ca         1 4DV      -0.084500
     15 C29         -4.2200    -1.6390     0.6370 ca         1 4DV      -0.099300
     16 C28         -3.5740    -0.5510     1.4940 c3         1 4DV       0.119900
     17 C9          -1.2020    -0.0160     0.8680 ca         1 4DV      -0.047200
     18 C23         -4.1640     1.8570    -0.5130 c3         1 4DV      -0.018200
     19 C24         -4.6490     3.1440     0.2500 c3         1 4DV      -0.176000
     20 C27         -6.0750     3.5640    -0.2570 c          1 4DV       0.721000
     21 C26         -4.6730     2.8780     1.7870 c3         1 4DV      -0.063100
     22 C25         -3.6930     4.3340    -0.0290 c3         1 4DV      -0.063100
     23 C8          -0.5110    -0.9620     1.6420 ca         1 4DV      -0.128000
     24 C10          3.0940    -0.2490     0.4990 cp         1 4DV       0.031000
     25 C15          3.9100    -0.5620     1.6140 ca         1 4DV      -0.130000
     26 C14          5.3080    -0.6370     1.4960 ca         1 4DV      -0.078000
     27 C13          5.9470    -0.3960     0.2580 cp         1 4DV      -0.097000
     28 C12          5.1330    -0.0950    -0.8610 ca         1 4DV       0.181000
     29 F1           5.6900     0.1010    -2.0780 f          1 4DV      -0.183000
     30 C11          3.7370    -0.0200    -0.7420 ca         1 4DV      -0.156000
     31 C16          7.4330    -0.4830     0.1530 cp         1 4DV      -0.024000
     32 C21          8.2400     0.6520    -0.1500 ca         1 4DV      -0.048300
     33 C22          7.6380     2.0380    -0.3600 c3         1 4DV      -0.051800
     34 C20          9.6400     0.5090    -0.2420 ca         1 4DV      -0.118000
     35 C19         10.2490    -0.7380    -0.0270 ca         1 4DV      -0.108000
     36 C18          9.4640    -1.8560     0.2880 ca         1 4DV      -0.121000
     37 C17          8.0690    -1.7270     0.3790 ca         1 4DV      -0.094000
     38 H1           1.4330    -1.7670     2.1010 ha         1 4DV       0.101000
     39 H3           1.3510     1.4540    -0.8250 ha         1 4DV       0.112000
     40 H4          -0.4610     2.2680    -2.3950 hc         1 4DV       0.033700
     41 H5          -2.1050     2.8990    -2.3040 hc         1 4DV       0.033700
     42 H6          -0.8380     3.5780    -1.2660 hc         1 4DV       0.033700
     43 H7          -3.4790    -3.9920    -1.7440 ha         1 4DV       0.125000
     44 H8          -2.3870    -2.2410    -0.3690 ha         1 4DV       0.125500
     45 H9          -7.2830    -3.0660     0.0630 ha         1 4DV       0.125000
     46 H10         -6.2080    -1.3060     1.4480 ha         1 4DV       0.125500
     47 H11         -3.1210    -1.0130     2.3780 h1         1 4DV       0.070700
     48 H12         -4.3530     0.1220     1.8650 h1         1 4DV       0.070700
     49 H13         -4.1580     2.0560    -1.5910 hc         1 4DV       0.067700
     50 H14         -4.9150     1.0690    -0.3780 hc         1 4DV       0.067700
     51 H15         -3.6900     2.5580     2.1540 hc         1 4DV       0.018200
     52 H16         -4.9440     3.7850     2.3420 hc         1 4DV       0.018200
     53 H17         -5.4050     2.1010     2.0360 hc         1 4DV       0.018200
     54 H18         -3.6120     4.5270    -1.1050 hc         1 4DV       0.018200
     55 H19         -4.0650     5.2490     0.4470 hc         1 4DV       0.018200
     56 H20         -2.6890     4.1400     0.3660 hc         1 4DV       0.018200
     57 H21         -1.0290    -1.6360     2.3190 ha         1 4DV       0.109000
     58 H22          3.4560    -0.7340     2.5860 ha         1 4DV       0.121000
     59 H23          5.9070    -0.8740     2.3720 ha         1 4DV       0.113000
     60 H24          3.1490     0.1990    -1.6280 ha         1 4DV       0.137000
     61 H25          6.7710     2.2060     0.2900 hc         1 4DV       0.046367
     62 H26          8.3640     2.8290    -0.1360 hc         1 4DV       0.046367
     63 H27          7.3130     2.1720    -1.3980 hc         1 4DV       0.046367
     64 H28         10.2610     1.3700    -0.4770 ha         1 4DV       0.107000
     65 H29         11.3300    -0.8350    -0.0990 ha         1 4DV       0.107000
     66 H30          9.9340    -2.8220     0.4590 ha         1 4DV       0.109000
     67 H31          7.4670    -2.6000     0.6200 ha         1 4DV       0.115000
     68 C3          -1.2220     2.6490    -1.7050 c3         1 4DV      -0.008900
     69 Cl1         -6.2170    -4.8830    -1.9060 cl         1 4DV      -0.223000
@<TRIPOS>BOND
     1     1    20 1   
     2     2     4 ar  
     3     2    23 ar  
     4     2    38 1   
     5     3    20 1   
     6     4     7 ar  
     7     4    24 1   
     8     5     6 1   
     9     5     9 2   
    10     5    18 1   
    11     6    16 1   
    12     6    17 1   
    13     7     8 ar  
    14     7    39 1   
    15     8     9 1   
    16     8    17 ar  
    17     9    68 1   
    18    10    11 ar  
    19    10    13 ar  
    20    10    69 1   
    21    11    12 ar  
    22    11    43 1   
    23    12    15 ar  
    24    12    44 1   
    25    13    14 ar  
    26    13    45 1   
    27    14    15 ar  
    28    14    46 1   
    29    15    16 1   
    30    16    47 1   
    31    16    48 1   
    32    17    23 ar  
    33    18    19 1   
    34    18    49 1   
    35    18    50 1   
    36    19    20 1   
    37    19    21 1   
    38    19    22 1   
    39    21    51 1   
    40    21    52 1   
    41    21    53 1   
    42    22    54 1   
    43    22    55 1   
    44    22    56 1   
    45    23    57 1   
    46    24    25 ar  
    47    24    30 ar  
    48    25    26 ar  
    49    25    58 1   
    50    26    27 ar  
    51    26    59 1   
    52    27    28 ar  
    53    27    31 1   
    54    28    29 1   
    55    28    30 ar  
    56    30    60 1   
    57    31    32 ar  
    58    31    37 ar  
    59    32    33 1   
    60    32    34 ar  
    61    33    61 1   
    62    33    62 1   
    63    33    63 1   
    64    34    35 ar  
    65    34    64 1   
    66    35    36 ar  
    67    35    65 1   
    68    36    37 ar  
    69    36    66 1   
    70    37    67 1   
    71    40    68 1   
    72    41    68 1   
    73    42    68 1   
@<TRIPOS>SUBSTRUCTURE
     1 4DV         1 TEMP              0 ****  ****    0 ROOT
