@<TRIPOS>MOLECULE
4DW
   48    50     1     0     0
SMALL
bcc


@<TRIPOS>ATOM
      1 C1           1.0100     0.4360     0.1120 ca         1 4DW      -0.103300
      2 C2           0.7440    -0.8620     0.5490 ca         1 4DW      -0.145000
      3 C3          -0.5420    -1.3710     0.5300 ca         1 4DW      -0.099500
      4 C4          -1.6070    -0.5880     0.0870 ca         1 4DW      -0.106600
      5 C5          -1.3460     0.7030    -0.3640 ca         1 4DW      -0.099500
      6 C6          -0.0520     1.2050    -0.3530 ca         1 4DW      -0.145000
      7 C7           2.4180     0.9520     0.1030 c3         1 4DW      -0.016100
      8 C8           3.1730     0.5220    -1.1650 c3         1 4DW      -0.012100
      9 C9           4.6140     0.9020    -1.1140 cc         1 4DW      -0.035300
     10 C10          5.2240     1.9030    -1.8120 cd         1 4DW      -0.184300
     11 N11          6.5590     1.9650    -1.4500 na         1 4DW      -0.191100
     12 C12          6.7890     1.0160    -0.5320 cd         1 4DW       0.131300
     13 C13          5.6260     0.3220    -0.2790 cc         1 4DW      -0.267600
     14 C14          5.6650    -0.7650     0.6710 c          1 4DW       0.758100
     15 O15          4.6880    -1.4570     0.9550 o          1 4DW      -0.540100
     16 N16          6.8830    -1.0100     1.2650 nc         1 4DW      -0.783100
     17 C17          7.9450    -0.3050     0.9890 cd         1 4DW       0.886100
     18 N18          7.9630     0.7200     0.0910 na         1 4DW      -0.738600
     19 N19          9.0980    -0.5540     1.6350 nv         1 4DW      -0.944800
     20 C20         -2.9760    -1.1870     0.0860 c          1 4DW       0.659700
     21 O21         -3.1350    -2.4020     0.0230 o          1 4DW      -0.624100
     22 N22         -4.0030    -0.3360     0.1920 ns         1 4DW      -0.501900
     23 C23         -5.3750    -0.7890     0.1260 c3         1 4DW      -0.015100
     24 C24         -6.2820     0.3960     0.2220 c2         1 4DW      -0.180200
     25 C25         -7.2930     0.5070     1.0780 ce         1 4DW      -0.232200
     26 C26         -8.2350     1.6890     1.1180 c          1 4DW       0.915800
     27 O27         -8.0410     2.6170     0.3060 o          1 4DW      -0.862800
     28 O28         -9.1400     1.6290     1.9770 o          1 4DW      -0.862800
     29 C29         -5.6920    -1.5120    -1.2220 c          1 4DW       0.951600
     30 O30         -6.5740    -2.3860    -1.1580 o          1 4DW      -0.838300
     31 O31         -5.0860    -1.1070    -2.2260 o          1 4DW      -0.838300
     32 H1           1.5620    -1.4770     0.9080 ha         1 4DW       0.119500
     33 H2          -0.7260    -2.3810     0.8730 ha         1 4DW       0.148500
     34 H3          -2.1410     1.3280    -0.7520 ha         1 4DW       0.148500
     35 H4           0.1320     2.2100    -0.7140 ha         1 4DW       0.119500
     36 H5           2.4260     2.0420     0.1720 hc         1 4DW       0.043200
     37 H6           2.9510     0.5670     0.9730 hc         1 4DW       0.043200
     38 H7           3.0760    -0.5600    -1.2800 hc         1 4DW       0.060700
     39 H8           2.6990     0.9760    -2.0390 hc         1 4DW       0.060700
     40 H9           4.8260     2.5870    -2.5420 h4         1 4DW       0.171000
     41 H10          7.2330     2.6140    -1.8220 hn         1 4DW       0.289700
     42 H11          8.8050     1.2480    -0.0870 hn         1 4DW       0.434800
     43 H12          9.1500    -1.4090     2.1600 hn         1 4DW       0.435300
     44 H13          9.9710    -0.1890     1.2920 hn         1 4DW       0.435300
     45 H14         -3.8260     0.6440     0.3410 hn         1 4DW       0.294500
     46 H15         -5.5780    -1.4790     0.9500 h1         1 4DW       0.046700
     47 H16         -6.1060     1.1910    -0.4980 ha         1 4DW       0.126000
     48 H17         -7.4680    -0.2860     1.8000 ha         1 4DW       0.089000
@<TRIPOS>BOND
     1     1     2 ar  
     2     1     6 ar  
     3     1     7 1   
     4     2     3 ar  
     5     2    32 1   
     6     3     4 ar  
     7     3    33 1   
     8     4     5 ar  
     9     4    20 1   
    10     5     6 ar  
    11     5    34 1   
    12     6    35 1   
    13     7     8 1   
    14     7    36 1   
    15     7    37 1   
    16     8     9 1   
    17     8    38 1   
    18     8    39 1   
    19     9    10 2   
    20     9    13 1   
    21    10    11 1   
    22    10    40 1   
    23    11    12 1   
    24    11    41 1   
    25    12    13 2   
    26    12    18 1   
    27    13    14 1   
    28    14    15 2   
    29    14    16 1   
    30    16    17 2   
    31    17    18 1   
    32    17    19 1   
    33    18    42 1   
    34    19    43 1   
    35    19    44 1   
    36    20    21 2   
    37    20    22 1   
    38    22    23 1   
    39    22    45 1   
    40    23    24 1   
    41    23    29 1   
    42    23    46 1   
    43    24    25 2   
    44    24    47 1   
    45    25    26 1   
    46    25    48 1   
    47    26    27 1   
    48    26    28 1   
    49    29    30 1   
    50    29    31 1   
@<TRIPOS>SUBSTRUCTURE
     1 4DW         1 TEMP              0 ****  ****    0 ROOT
