@<TRIPOS>MOLECULE
4DW
   48    50     1     0     0
SMALL
No Charge or Current Charge


@<TRIPOS>ATOM
      1 C1           0.9100     0.2360     0.3810 ca         1 4DW      -0.103300
      2 C2           0.6700    -1.1030     0.7300 ca         1 4DW      -0.127000
      3 C3          -0.6330    -1.6270     0.6880 ca         1 4DW      -0.081500
      4 C4          -1.7270    -0.8210     0.2950 ca         1 4DW      -0.106600
      5 C5          -1.4740     0.5280    -0.0570 ca         1 4DW      -0.081500
      6 C6          -0.1680     1.0470    -0.0140 ca         1 4DW      -0.127000
      7 C7           2.3250     0.7990     0.4210 c3         1 4DW      -0.016100
      8 C8           3.1010     0.5150    -0.8810 c3         1 4DW      -0.012100
      9 C9           4.5080     1.0560    -0.8530 cc         1 4DW      -0.035300
     10 C10          4.9650     2.2400    -1.4130 cd         1 4DW      -0.217000
     11 N11          6.3440     2.3360    -1.1320 na         1 4DW      -0.140000
     12 C12          6.6660     1.2040    -0.4230 cd         1 4DW       0.219000
     13 C13          5.6140     0.4190    -0.2280 cc         1 4DW      -0.267600
     14 C14          5.7420    -0.8300     0.5140 c          1 4DW       0.758100
     15 O15          4.8340    -1.6150     0.7340 o          1 4DW      -0.540100
     16 N16          7.0190    -1.0610     0.9580 nc         1 4DW      -0.783100
     17 C17          7.9990    -0.2440     0.7460 cd         1 4DW       0.886100
     18 N18          7.9170     0.9140     0.0590 na         1 4DW      -0.932200
     19 N19          9.1800    -0.5540     1.1810 nv         1 4DW      -1.055200
     20 C20         -3.1220    -1.4200     0.2620 c          1 4DW       0.592700
     21 O21         -3.3390    -2.5840     0.5770 o          1 4DW      -0.624100
     22 N22         -4.1450    -0.5840    -0.1400 ns         1 4DW      -0.434900
     23 C23         -5.5650    -0.9750    -0.2450 c3         1 4DW      -0.015100
     24 C24         -6.4160     0.2850    -0.1980 c2         1 4DW      -0.230200
     25 C25         -6.5590     1.0990     0.8780 ce         1 4DW      -0.282200
     26 C26         -7.3970     2.3370     0.9270 c          1 4DW       0.705200
     27 O27         -8.0190     2.6720    -0.0680 o          1 4DW      -0.757500
     28 O28         -7.4200     2.9610     1.9750 o          1 4DW      -0.757500
     29 C29         -5.8200    -1.8640    -1.5140 c          1 4DW       0.741000
     30 O30         -6.4890    -2.8820    -1.3840 o          1 4DW      -0.733000
     31 O31         -5.3890    -1.4850    -2.5970 o          1 4DW      -0.733000
     32 H1           1.4960    -1.7430     1.0330 ha         1 4DW       0.101500
     33 H2          -0.7910    -2.6670     0.9640 ha         1 4DW       0.130500
     34 H3          -2.2780     1.1910    -0.3660 ha         1 4DW       0.130500
     35 H4           0.0040     2.0850    -0.2900 ha         1 4DW       0.101500
     36 H5           2.3000     1.8820     0.5920 hc         1 4DW       0.043200
     37 H6           2.8740     0.3710     1.2700 hc         1 4DW       0.043200
     38 H7           3.1180    -0.5650    -1.0690 hc         1 4DW       0.060700
     39 H8           2.5560     0.9620    -1.7210 hc         1 4DW       0.060700
     40 H9           4.4280     3.0000    -1.9700 h4         1 4DW       0.153000
     41 H10          6.9770     3.0820    -1.3960 hn         1 4DW       0.340000
     42 H11          8.7190     1.5180    -0.0420 hn         1 4DW       0.490000
     43 H12          9.2250    -1.5130     1.4940 hn         1 4DW       0.490500
     44 H13          9.9430    -0.2680     0.5870 hn         1 4DW       0.490500
     45 H14         -3.8930     0.3600    -0.3970 hn         1 4DW       0.294500
     46 H15         -5.8100    -1.5880     0.6320 h1         1 4DW       0.046700
     47 H16         -6.9370     0.5080    -1.1330 ha         1 4DW       0.176000
     48 H17         -6.0370     0.8670     1.8040 ha         1 4DW       0.139000
@<TRIPOS>BOND
     1     1     2 ar  
     2     1     6 ar  
     3     1     7 1   
     4     2     3 ar  
     5     2    32 1   
     6     3     4 ar  
     7     3    33 1   
     8     4     5 ar  
     9     4    20 1   
    10     5     6 ar  
    11     5    34 1   
    12     6    35 1   
    13     7     8 1   
    14     7    36 1   
    15     7    37 1   
    16     8     9 1   
    17     8    38 1   
    18     8    39 1   
    19     9    10 2   
    20     9    13 1   
    21    10    11 1   
    22    10    40 1   
    23    11    12 1   
    24    11    41 1   
    25    12    13 2   
    26    12    18 1   
    27    13    14 1   
    28    14    15 2   
    29    14    16 1   
    30    16    17 2   
    31    17    18 1   
    32    17    19 1   
    33    18    42 1   
    34    19    43 1   
    35    19    44 1   
    36    20    21 2   
    37    20    22 1   
    38    22    23 1   
    39    22    45 1   
    40    23    24 1   
    41    23    29 1   
    42    23    46 1   
    43    24    25 2   
    44    24    47 1   
    45    25    26 1   
    46    25    48 1   
    47    26    27 1   
    48    26    28 1   
    49    29    30 1   
    50    29    31 1   
@<TRIPOS>SUBSTRUCTURE
     1 4DW         1 TEMP              0 ****  ****    0 ROOT
