@<TRIPOS>MOLECULE
4DX
   22    22     1     0     0
SMALL
bcc


@<TRIPOS>ATOM
      1 C1           1.8230     1.5200    -0.1150 c3         1 4DX      -0.080100
      2 C2           0.5990     0.7130     0.3040 c6         1 4DX      -0.055700
      3 C3          -0.6910     1.4360    -0.0920 c6         1 4DX      -0.074400
      4 C4          -1.9430     0.6650     0.3100 c6         1 4DX      -0.075400
      5 C5          -1.9230    -0.7490    -0.2580 c6         1 4DX      -0.070400
      6 C6          -0.6400    -1.4740     0.1310 c6         1 4DX      -0.112400
      7 C7           0.5990    -0.6910    -0.2930 c6         1 4DX       0.150100
      8 O8           1.7880    -1.3470     0.1030 oh         1 4DX      -0.597800
      9 H1           1.7700     2.5340     0.2850 hc         1 4DX       0.035033
     10 H1A          2.7510     1.0740     0.2400 hc         1 4DX       0.035033
     11 H1B          1.8840     1.5990    -1.2030 hc         1 4DX       0.035033
     12 H2           0.6060     0.6100     1.3980 hc         1 4DX       0.056700
     13 H3          -0.7000     2.4320     0.3570 hc         1 4DX       0.040700
     14 H3A         -0.6940     1.5890    -1.1780 hc         1 4DX       0.040700
     15 H4          -2.0080     0.6180     1.4020 hc         1 4DX       0.040200
     16 H4A         -2.8340     1.1960    -0.0320 hc         1 4DX       0.040200
     17 H5          -2.7910    -1.3130     0.0900 hc         1 4DX       0.039700
     18 H5A         -2.0020    -0.7040    -1.3500 hc         1 4DX       0.039700
     19 H6          -0.6120    -1.6170     1.2170 hc         1 4DX       0.044200
     20 H6A         -0.6180    -2.4710    -0.3210 hc         1 4DX       0.044200
     21 H7           0.5750    -0.5810    -1.3910 h1         1 4DX       0.026700
     22 HO8          1.7720    -2.2360    -0.2640 ho         1 4DX       0.400000
@<TRIPOS>BOND
     1     1     2 1   
     2     1     9 1   
     3     1    10 1   
     4     1    11 1   
     5     2     3 1   
     6     2     7 1   
     7     2    12 1   
     8     3     4 1   
     9     3    13 1   
    10     3    14 1   
    11     4     5 1   
    12     4    15 1   
    13     4    16 1   
    14     5     6 1   
    15     5    17 1   
    16     5    18 1   
    17     6     7 1   
    18     6    19 1   
    19     6    20 1   
    20     7     8 1   
    21     7    21 1   
    22     8    22 1   
@<TRIPOS>SUBSTRUCTURE
     1 4DX         1 TEMP              0 ****  ****    0 ROOT
