@<TRIPOS>MOLECULE
4DX
   22    22     1     0     0
SMALL
No Charge or Current Charge


@<TRIPOS>ATOM
      1 C1           1.8480     1.5650    -0.1280 c3         1 4DX      -0.080100
      2 C2           0.6060     0.7330     0.3010 c6         1 4DX      -0.055700
      3 C3          -0.7060     1.4690    -0.0970 c6         1 4DX      -0.074400
      4 C4          -1.9620     0.6680     0.3230 c6         1 4DX      -0.075400
      5 C5          -1.9370    -0.7590    -0.2710 c6         1 4DX      -0.070400
      6 C6          -0.6420    -1.5040     0.1320 c6         1 4DX      -0.112400
      7 C7           0.6250    -0.7140    -0.2870 c6         1 4DX       0.173300
      8 O8           1.7870    -1.4250     0.1530 oh         1 4DX      -0.660000
      9 H1           1.8100     2.5770     0.2910 hc         1 4DX       0.035033
     10 H1A          2.7810     1.1050     0.2190 hc         1 4DX       0.035033
     11 H1B          1.9080     1.6580    -1.2190 hc         1 4DX       0.035033
     12 H2           0.6440     0.6650     1.3980 hc         1 4DX       0.056700
     13 H3          -0.7340     2.4630     0.3700 hc         1 4DX       0.040700
     14 H3A         -0.7240     1.6350    -1.1830 hc         1 4DX       0.040700
     15 H4          -2.0180     0.6130     1.4190 hc         1 4DX       0.040200
     16 H4A         -2.8680     1.1940    -0.0090 hc         1 4DX       0.040200
     17 H5          -2.8150    -1.3220     0.0740 hc         1 4DX       0.039700
     18 H5A         -2.0100    -0.7070    -1.3670 hc         1 4DX       0.039700
     19 H6          -0.6370    -1.6670     1.2190 hc         1 4DX       0.044200
     20 H6A         -0.6340    -2.5000    -0.3330 hc         1 4DX       0.044200
     21 H7           0.6350    -0.6380    -1.3850 h1         1 4DX       0.026700
     22 HO8          1.7550    -2.3060    -0.2790 ho         1 4DX       0.439000
@<TRIPOS>BOND
     1     1     2 1   
     2     1     9 1   
     3     1    10 1   
     4     1    11 1   
     5     2     3 1   
     6     2     7 1   
     7     2    12 1   
     8     3     4 1   
     9     3    13 1   
    10     3    14 1   
    11     4     5 1   
    12     4    15 1   
    13     4    16 1   
    14     5     6 1   
    15     5    17 1   
    16     5    18 1   
    17     6     7 1   
    18     6    19 1   
    19     6    20 1   
    20     7     8 1   
    21     7    21 1   
    22     8    22 1   
@<TRIPOS>SUBSTRUCTURE
     1 4DX         1 TEMP              0 ****  ****    0 ROOT
