@<TRIPOS>MOLECULE
4DY
   49    49     1     0     0
SMALL
abcg2


@<TRIPOS>ATOM
      1 C1           3.5620    -0.6300     1.2020 ca         1 4DY      -0.122300
      2 C2           3.9150     0.4150     0.3430 ca         1 4DY      -0.133000
      3 C3           5.0180     0.3060    -0.4850 ca         1 4DY       0.045100
      4 C4           5.7970    -0.8660    -0.4660 ca         1 4DY       0.127100
      5 C5           5.4480    -1.8960     0.3870 ca         1 4DY      -0.130000
      6 C40         -8.2090    -1.7970    -1.2210 c3         1 4DY      -0.083100
      7 C38         -8.0510    -0.2840    -1.0680 c3         1 4DY      -0.028500
      8 C44         -9.3330     0.3370    -0.5110 c3         1 4DY      -0.083100
      9 C37         -6.8790     0.0370    -0.1880 c2         1 4DY      -0.213200
     10 C36         -5.8050     0.7250    -0.5620 c2         1 4DY      -0.222200
     11 C33         -4.6220     1.0200     0.3040 c3         1 4DY      -0.039200
     12 C30         -3.3450     0.3640    -0.2230 c3         1 4DY      -0.074400
     13 C27         -2.1170     0.7090     0.6080 c3         1 4DY      -0.068400
     14 C24         -0.8610     0.0180     0.0860 c3         1 4DY      -0.157400
     15 C22          0.3730     0.3920     0.8770 c          1 4DY       0.601100
     16 O23          0.6700     1.5620     1.0900 o          1 4DY      -0.615100
     17 N21          1.1010    -0.6430     1.3290 ns         1 4DY      -0.502900
     18 C17          2.3370    -0.5090     2.0720 c3         1 4DY       0.151300
     19 C6           4.3350    -1.7780     1.2160 ca         1 4DY      -0.097000
     20 O10          6.8780    -1.0000    -1.2610 oh         1 4DY      -0.535100
     21 O12          5.4460     1.2520    -1.3490 os         1 4DY      -0.370100
     22 C13          4.6900     2.4390    -1.4800 c3         1 4DY       0.155900
     23 H2           3.3120     1.3150     0.3370 ha         1 4DY       0.135000
     24 H5           6.0480    -2.7970     0.3990 ha         1 4DY       0.130000
     25 H40         -8.4070    -2.2690    -0.2560 hc         1 4DY       0.033533
     26 H6T         -9.0420    -2.0370    -1.8850 hc         1 4DY       0.033533
     27 H6S         -7.3090    -2.2520    -1.6360 hc         1 4DY       0.033533
     28 H38         -7.8620     0.1430    -2.0590 hc         1 4DY       0.046700
     29 H6U         -9.5510    -0.0510     0.4870 hc         1 4DY       0.033533
     30 H6V         -9.2500     1.4220    -0.4370 hc         1 4DY       0.033533
     31 H44        -10.1880     0.1070    -1.1500 hc         1 4DY       0.033533
     32 H37         -6.9370    -0.3370     0.8350 ha         1 4DY       0.165000
     33 H36         -5.7500     1.0930    -1.5860 ha         1 4DY       0.165000
     34 H33         -4.4650     2.1040     0.3530 hc         1 4DY       0.045200
     35 H6R         -4.8120     0.6850     1.3270 hc         1 4DY       0.045200
     36 H6Q         -3.4850    -0.7220    -0.2420 hc         1 4DY       0.039200
     37 H30         -3.1800     0.6700    -1.2610 hc         1 4DY       0.039200
     38 H27         -1.9660     1.7910     0.6050 hc         1 4DY       0.053200
     39 H6P         -2.2850     0.4200     1.6500 hc         1 4DY       0.053200
     40 H6O         -1.0090    -1.0650     0.0790 hc         1 4DY       0.056200
     41 H24         -0.6870     0.3140    -0.9530 hc         1 4DY       0.056200
     42 H21          0.8150    -1.5750     1.0800 hn         1 4DY       0.311500
     43 H6N          2.3530    -1.2850     2.8380 h1         1 4DY       0.062700
     44 H17          2.3220     0.4500     2.5900 h1         1 4DY       0.062700
     45 H6           4.0790    -2.5970     1.8770 ha         1 4DY       0.112000
     46 H10          6.9890    -0.2120    -1.8070 ho         1 4DY       0.482000
     47 H6M          3.6670     2.2330    -1.8050 h1         1 4DY       0.044367
     48 H6L          4.6580     3.0050    -0.5460 h1         1 4DY       0.044367
     49 H13          5.1860     3.0400    -2.2380 h1         1 4DY       0.044367
@<TRIPOS>BOND
     1     1     2 ar  
     2     1    18 1   
     3     1    19 ar  
     4     2     3 ar  
     5     2    23 1   
     6     3     4 ar  
     7     3    21 1   
     8     4     5 ar  
     9     4    20 1   
    10     5    19 ar  
    11     5    24 1   
    12     6     7 1   
    13     6    25 1   
    14     6    26 1   
    15     6    27 1   
    16     7     8 1   
    17     7     9 1   
    18     7    28 1   
    19     8    29 1   
    20     8    30 1   
    21     8    31 1   
    22     9    10 2   
    23     9    32 1   
    24    10    11 1   
    25    10    33 1   
    26    11    12 1   
    27    11    34 1   
    28    11    35 1   
    29    12    13 1   
    30    12    36 1   
    31    12    37 1   
    32    13    14 1   
    33    13    38 1   
    34    13    39 1   
    35    14    15 1   
    36    14    40 1   
    37    14    41 1   
    38    15    16 2   
    39    15    17 1   
    40    17    18 1   
    41    17    42 1   
    42    18    43 1   
    43    18    44 1   
    44    19    45 1   
    45    20    46 1   
    46    21    22 1   
    47    22    47 1   
    48    22    48 1   
    49    22    49 1   
@<TRIPOS>SUBSTRUCTURE
     1 4DY         1 TEMP              0 ****  ****    0 ROOT
