@<TRIPOS>MOLECULE
4DY
   49    49     1     0     0
SMALL
No Charge or Current Charge


@<TRIPOS>ATOM
      1 C1           3.4390    -0.5550     1.1550 ca         1 4DY      -0.122300
      2 C2           4.0640     0.4260     0.3590 ca         1 4DY      -0.133000
      3 C3           5.2010     0.0980    -0.4140 ca         1 4DY       0.045100
      4 C4           5.7030    -1.2190    -0.3820 ca         1 4DY       0.127100
      5 C5           5.0820    -2.1970     0.4080 ca         1 4DY      -0.130000
      6 C40         -8.1480    -1.9670    -1.3390 c3         1 4DY      -0.083100
      7 C38         -8.1510    -0.4830    -0.9190 c3         1 4DY      -0.028500
      8 C44         -9.4350    -0.1070    -0.1510 c3         1 4DY      -0.083100
      9 C37         -6.9170    -0.1500    -0.1040 c2         1 4DY      -0.213200
     10 C36         -5.9610     0.7210    -0.4640 c2         1 4DY      -0.222200
     11 C33         -4.7290     1.0530     0.3520 c3         1 4DY      -0.039200
     12 C30         -3.4300     0.6130    -0.3540 c3         1 4DY      -0.074400
     13 C27         -2.1570     0.9350     0.4600 c3         1 4DY      -0.068400
     14 C24         -0.8570     0.4930    -0.2510 c3         1 4DY      -0.157400
     15 C22          0.3840     0.8230     0.5860 c          1 4DY       0.601100
     16 O23          0.8170     1.9620     0.6980 o          1 4DY      -0.615100
     17 N21          0.9930    -0.2610     1.1740 ns         1 4DY      -0.502900
     18 C17          2.2110    -0.1990     1.9810 c3         1 4DY       0.151300
     19 C6           3.9510    -1.8670     1.1750 ca         1 4DY      -0.097000
     20 O10          6.8010    -1.5410    -1.1270 oh         1 4DY      -0.535100
     21 O12          5.8490     1.0260    -1.2140 os         1 4DY      -0.370100
     22 C13          5.4070     2.3930    -1.3180 c3         1 4DY       0.155900
     23 H2           3.6530     1.4320     0.3520 ha         1 4DY       0.135000
     24 H5           5.4750    -3.2110     0.4270 ha         1 4DY       0.130000
     25 H40         -8.1750    -2.6220    -0.4600 hc         1 4DY       0.033533
     26 H6T         -9.0190    -2.1950    -1.9660 hc         1 4DY       0.033533
     27 H6S         -7.2440    -2.2010    -1.9140 hc         1 4DY       0.033533
     28 H38         -8.1420     0.1130    -1.8410 hc         1 4DY       0.046700
     29 H6U         -9.5180    -0.6830     0.7780 hc         1 4DY       0.033533
     30 H6V         -9.4320     0.9590     0.1040 hc         1 4DY       0.033533
     31 H44        -10.3250    -0.3080    -0.7610 hc         1 4DY       0.033533
     32 H37         -6.8430    -0.6890     0.8430 ha         1 4DY       0.165000
     33 H36         -6.0330     1.2620    -1.4100 ha         1 4DY       0.165000
     34 H33         -4.6920     2.1330     0.5410 hc         1 4DY       0.045200
     35 H6R         -4.7820     0.5680     1.3350 hc         1 4DY       0.045200
     36 H6Q         -3.4750    -0.4660    -0.5440 hc         1 4DY       0.039200
     37 H30         -3.3680     1.1080    -1.3310 hc         1 4DY       0.039200
     38 H27         -2.1160     2.0150     0.6520 hc         1 4DY       0.053200
     39 H6P         -2.2190     0.4400     1.4380 hc         1 4DY       0.053200
     40 H6O         -0.9100    -0.5870    -0.4320 hc         1 4DY       0.056200
     41 H24         -0.7860     1.0260    -1.2070 hc         1 4DY       0.056200
     42 H21          0.5710    -1.1660     1.0110 hn         1 4DY       0.311500
     43 H6N          2.1110    -0.9010     2.8200 h1         1 4DY       0.062700
     44 H17          2.3280     0.8070     2.4080 h1         1 4DY       0.062700
     45 H6           3.4730    -2.6320     1.7840 ha         1 4DY       0.112000
     46 H10          7.0670    -0.7180    -1.5950 ho         1 4DY       0.482000
     47 H6M          4.3820     2.4440    -1.7080 h1         1 4DY       0.044367
     48 H6L          5.4370     2.8890    -0.3390 h1         1 4DY       0.044367
     49 H13          6.0580     2.9520    -2.0020 h1         1 4DY       0.044367
@<TRIPOS>BOND
     1     1     2 ar  
     2     1    18 1   
     3     1    19 ar  
     4     2     3 ar  
     5     2    23 1   
     6     3     4 ar  
     7     3    21 1   
     8     4     5 ar  
     9     4    20 1   
    10     5    19 ar  
    11     5    24 1   
    12     6     7 1   
    13     6    25 1   
    14     6    26 1   
    15     6    27 1   
    16     7     8 1   
    17     7     9 1   
    18     7    28 1   
    19     8    29 1   
    20     8    30 1   
    21     8    31 1   
    22     9    10 2   
    23     9    32 1   
    24    10    11 1   
    25    10    33 1   
    26    11    12 1   
    27    11    34 1   
    28    11    35 1   
    29    12    13 1   
    30    12    36 1   
    31    12    37 1   
    32    13    14 1   
    33    13    38 1   
    34    13    39 1   
    35    14    15 1   
    36    14    40 1   
    37    14    41 1   
    38    15    16 2   
    39    15    17 1   
    40    17    18 1   
    41    17    42 1   
    42    18    43 1   
    43    18    44 1   
    44    19    45 1   
    45    20    46 1   
    46    21    22 1   
    47    22    47 1   
    48    22    48 1   
    49    22    49 1   
@<TRIPOS>SUBSTRUCTURE
     1 4DY         1 TEMP              0 ****  ****    0 ROOT
