@<TRIPOS>MOLECULE
4DZ
   39    43     1     0     0
SMALL
bcc


@<TRIPOS>ATOM
      1 C7           5.6110    -0.1610     0.5940 ca         1 4DZ      -0.076000
      2 C6           5.1980     1.8680    -0.6030 ca         1 4DZ      -0.076000
      3 C1           2.9700     2.4930    -1.2940 cg         1 4DZ       0.228300
      4 C5           6.0850     0.9930    -0.0030 ca         1 4DZ      -0.126000
      5 C4          -1.5460    -4.2850    -0.6890 ca         1 4DZ      -0.120000
      6 C3          -2.8900    -3.9200    -0.5710 ca         1 4DZ      -0.127000
      7 C22         -4.2670     1.5150     0.4400 ca         1 4DZ       0.030400
      8 C11         -3.2780     2.4880     0.5900 ca         1 4DZ      -0.115000
      9 C12         -3.9540     0.1980     0.1970 ca         1 4DZ      -0.111000
     10 C18         -2.6170    -0.2140     0.0890 ca         1 4DZ       0.008000
     11 C15         -2.2640    -1.6090    -0.1760 ca         1 4DZ      -0.036000
     12 C8          -3.2390    -2.6120    -0.3200 ca         1 4DZ      -0.115000
     13 C17         -1.6140     0.7730     0.2410 ca         1 4DZ      -0.010000
     14 C10         -1.9620     2.1070     0.4880 ca         1 4DZ      -0.112000
     15 C21         -0.2670     0.3300     0.1170 ca         1 4DZ      -0.084200
     16 N27          0.9110     1.0080     0.1970 na         1 4DZ      -0.208300
     17 C23          1.9050     0.1020    -0.0070 cc         1 4DZ       0.399400
     18 C19          3.3270     0.4300     0.0000 ca         1 4DZ      -0.023900
     19 C14          4.2450    -0.4400     0.6000 ca         1 4DZ       0.005500
     20 C13          3.8330     1.5870    -0.6070 ca         1 4DZ       0.005500
     21 N24          2.2970     3.2400    -1.8560 n1         1 4DZ      -0.339800
     22 N26          1.4350    -1.1020    -0.2170 nd         1 4DZ      -0.533100
     23 C20          0.0850    -0.9780    -0.1430 ca         1 4DZ       0.080400
     24 C16         -0.9090    -1.9940    -0.2970 ca         1 4DZ       0.018000
     25 C9          -0.5670    -3.3280    -0.5520 ca         1 4DZ      -0.099000
     26 H1           6.2960    -0.8490     1.0690 ha         1 4DZ       0.153000
     27 H2           5.5580     2.7680    -1.0820 ha         1 4DZ       0.153000
     28 H3           7.1440     1.2090    -0.0030 ha         1 4DZ       0.150000
     29 H4          -1.2770    -5.3140    -0.8850 ha         1 4DZ       0.135000
     30 H5          -3.6650    -4.6680    -0.6750 ha         1 4DZ       0.132000
     31 H6          -3.5410     3.5190     0.7790 ha         1 4DZ       0.151000
     32 H7          -4.7610    -0.5130     0.0890 ha         1 4DZ       0.150000
     33 H8          -4.2890    -2.3750    -0.2320 ha         1 4DZ       0.130000
     34 H9          -1.1920     2.8610     0.5990 ha         1 4DZ       0.130000
     35 H10          1.0310     1.9720     0.4700 hn         1 4DZ       0.314700
     36 H12          0.4790    -3.5940    -0.6390 ha         1 4DZ       0.155000
     37 C2           3.8210    -1.6230     1.2810 cg         1 4DZ       0.228300
     38 CL          -5.9300     1.9820     0.5630 cl         1 4DZ      -0.105400
     39 N25          3.5660    -2.5790     1.8700 n1         1 4DZ      -0.339800
@<TRIPOS>BOND
     1     1     4 ar  
     2     1    19 ar  
     3     1    26 1   
     4     2     4 ar  
     5     2    20 ar  
     6     2    27 1   
     7     3    20 1   
     8     3    21 3   
     9     4    28 1   
    10     5     6 ar  
    11     5    25 ar  
    12     5    29 1   
    13     6    12 ar  
    14     6    30 1   
    15     7     8 ar  
    16     7     9 ar  
    17     7    38 1   
    18     8    14 ar  
    19     8    31 1   
    20     9    10 ar  
    21     9    32 1   
    22    10    11 ar  
    23    10    13 ar  
    24    11    12 ar  
    25    11    24 ar  
    26    12    33 1   
    27    13    14 ar  
    28    13    15 ar  
    29    14    34 1   
    30    15    16 1   
    31    15    23 ar  
    32    16    17 1   
    33    16    35 1   
    34    17    18 1   
    35    17    22 2   
    36    18    19 ar  
    37    18    20 ar  
    38    19    37 1   
    39    22    23 1   
    40    23    24 ar  
    41    24    25 ar  
    42    25    36 1   
    43    37    39 3   
@<TRIPOS>SUBSTRUCTURE
     1 4DZ         1 TEMP              0 ****  ****    0 ROOT
