@<TRIPOS>MOLECULE
4DZ
   39    43     1     0     0
SMALL
No Charge or Current Charge


@<TRIPOS>ATOM
      1 C7           5.6420     0.0130     0.8080 ca         1 4DZ      -0.058000
      2 C6           5.2270     1.7950    -0.7870 ca         1 4DZ      -0.058000
      3 C1           2.9960     2.2340    -1.6770 cg         1 4DZ       0.317500
      4 C5           6.1170     1.0670     0.0150 ca         1 4DZ      -0.108000
      5 C4          -1.5910    -4.2700    -0.9040 ca         1 4DZ      -0.102000
      6 C3          -2.9390    -3.9190    -0.7590 ca         1 4DZ      -0.109000
      7 C22         -4.2580     1.5370     0.6200 ca         1 4DZ       0.122000
      8 C11         -3.2180     2.4580     0.7960 ca         1 4DZ      -0.097000
      9 C12         -3.9810     0.2020     0.2840 ca         1 4DZ      -0.093000
     10 C18         -2.6450    -0.2450     0.1160 ca         1 4DZ       0.008000
     11 C15         -2.3150    -1.6010    -0.2260 ca         1 4DZ      -0.036000
     12 C8          -3.3010    -2.6030    -0.4250 ca         1 4DZ      -0.097000
     13 C17         -1.6010     0.7060     0.3000 ca         1 4DZ      -0.010000
     14 C10         -1.8890     2.0440     0.6370 ca         1 4DZ      -0.094000
     15 C21         -0.2780     0.2750     0.1370 ca         1 4DZ      -0.084200
     16 N27          0.8970     0.9620     0.2530 na         1 4DZ      -0.258600
     17 C23          1.9260     0.0630    -0.0150 cc         1 4DZ       0.399400
     18 C19          3.3560     0.4190     0.0090 ca         1 4DZ      -0.023900
     19 C14          4.2730    -0.3200     0.8090 ca         1 4DZ       0.005500
     20 C13          3.8550     1.4780    -0.8000 ca         1 4DZ       0.005500
     21 N24          2.2930     2.8490    -2.3770 n1         1 4DZ      -0.429000
     22 N26          1.4350    -1.1600    -0.2900 nd         1 4DZ      -0.533100
     23 C20          0.0510    -1.0060    -0.1890 ca         1 4DZ       0.080400
     24 C16         -0.9480    -1.9770    -0.3790 ca         1 4DZ       0.018000
     25 C9          -0.5970    -3.3000    -0.7150 ca         1 4DZ      -0.081000
     26 H1           6.3420    -0.5440     1.4280 ha         1 4DZ       0.135000
     27 H2           5.6100     2.6040    -1.4070 ha         1 4DZ       0.135000
     28 H3           7.1760     1.3170     0.0200 ha         1 4DZ       0.132000
     29 H4          -1.3160    -5.2900    -1.1630 ha         1 4DZ       0.117000
     30 H5          -3.7120    -4.6710    -0.9060 ha         1 4DZ       0.114000
     31 H6          -3.4420     3.4900     1.0550 ha         1 4DZ       0.133000
     32 H7          -4.8300    -0.4590     0.1620 ha         1 4DZ       0.132000
     33 H8          -4.3600    -2.3970    -0.3270 ha         1 4DZ       0.112000
     34 H9          -1.0890     2.7670     0.7750 ha         1 4DZ       0.112000
     35 H10          1.0130     1.9350     0.5000 hn         1 4DZ       0.365000
     36 H12          0.4480    -3.5800    -0.8290 ha         1 4DZ       0.137000
     37 C2           3.8410    -1.3920     1.6710 cg         1 4DZ       0.317500
     38 Cl          -5.9260     2.0590     0.8200 cl         1 4DZ      -0.197000
     39 N25          3.5070    -2.2560     2.3820 n1         1 4DZ      -0.429000
@<TRIPOS>BOND
     1     1     4 ar  
     2     1    19 ar  
     3     1    26 1   
     4     2     4 ar  
     5     2    20 ar  
     6     2    27 1   
     7     3    20 1   
     8     3    21 3   
     9     4    28 1   
    10     5     6 ar  
    11     5    25 ar  
    12     5    29 1   
    13     6    12 ar  
    14     6    30 1   
    15     7     8 ar  
    16     7     9 ar  
    17     7    38 1   
    18     8    14 ar  
    19     8    31 1   
    20     9    10 ar  
    21     9    32 1   
    22    10    11 ar  
    23    10    13 ar  
    24    11    12 ar  
    25    11    24 ar  
    26    12    33 1   
    27    13    14 ar  
    28    13    15 ar  
    29    14    34 1   
    30    15    16 1   
    31    15    23 ar  
    32    16    17 1   
    33    16    35 1   
    34    17    18 1   
    35    17    22 2   
    36    18    19 ar  
    37    18    20 ar  
    38    19    37 1   
    39    22    23 1   
    40    23    24 ar  
    41    24    25 ar  
    42    25    36 1   
    43    37    39 3   
@<TRIPOS>SUBSTRUCTURE
     1 4DZ         1 TEMP              0 ****  ****    0 ROOT
