@<TRIPOS>MOLECULE
4E0
   66    65     1     0     0
SMALL
No Charge or Current Charge


@<TRIPOS>ATOM
      1 C10         20.9940   -12.1040   -33.2340 c3         1 4E0      -0.074400
      2 C13         23.8590   -12.4230   -31.7830 c3         1 4E0      -0.077400
      3 C15         25.7520   -11.6640   -30.2050 c3         1 4E0      -0.078400
      4 C21         27.1050   -10.8290   -25.9660 c3         1 4E0      -0.488400
      5 C22         27.9670   -11.9970   -25.4150 c3         1 4E0      -0.047400
      6 C24         29.2180   -10.6540   -23.5790 c3         1 4E0      -0.089100
      7 C01         20.4590   -18.0940   -39.7890 c3         1 4E0      -0.088100
      8 C02         19.4890   -17.0750   -39.1600 c3         1 4E0      -0.075400
      9 C03         20.1480   -15.7080   -38.8750 c3         1 4E0      -0.076400
     10 C04         19.1760   -14.6870   -38.2440 c3         1 4E0      -0.075400
     11 C05         19.8410   -13.3220   -37.9550 c3         1 4E0      -0.072400
     12 C06         18.8800   -12.2470   -37.3870 c3         1 4E0      -0.070400
     13 C07         18.1960   -12.5940   -36.0370 c3         1 4E0      -0.072400
     14 C08         19.1510   -12.9450   -34.8690 c3         1 4E0      -0.074400
     15 C09         20.1320   -11.8110   -34.4850 c3         1 4E0      -0.074400
     16 C11         22.0100   -13.2600   -33.4150 c3         1 4E0      -0.073400
     17 C12         22.8760   -13.5540   -32.1660 c3         1 4E0      -0.073400
     18 C14         24.7690   -12.7950   -30.5910 c3         1 4E0      -0.070400
     19 C16         26.7110   -12.0330   -29.0480 c3         1 4E0       0.224600
     20 C23         29.3260   -11.5490   -24.8310 c3         1 4E0      -0.070400
     21 O17         25.9560   -12.3840   -27.8770 os         1 4E0      -0.606400
     22 O19         24.4520   -11.7630   -25.7940 o          1 4E0      -0.680000
     23 P18         25.5060   -11.3040   -26.7520 p5         1 4E0       1.538800
     24 H1          21.5340   -11.1860   -32.9780 hc         1 4E0       0.037700
     25 H2          20.3350   -12.3270   -32.3850 hc         1 4E0       0.037700
     26 H3          24.4840   -12.1800   -32.6510 hc         1 4E0       0.036700
     27 H4          23.2970   -11.5170   -31.5260 hc         1 4E0       0.036700
     28 H5          26.3620   -11.4140   -31.0820 hc         1 4E0       0.049700
     29 H6          25.1890   -10.7570   -29.9610 hc         1 4E0       0.049700
     30 H7          27.6620   -10.2580   -26.7150 hc         1 4E0       0.083700
     31 H8          26.8230   -10.1420   -25.1620 hc         1 4E0       0.083700
     32 H9          28.1620   -12.7150   -26.2230 hc         1 4E0       0.049200
     33 H10         27.4050   -12.5410   -24.6450 hc         1 4E0       0.049200
     34 H11         30.2160   -10.4430   -23.1760 hc         1 4E0       0.033700
     35 H12         28.7420    -9.6960   -23.8180 hc         1 4E0       0.033700
     36 H13         28.6310   -11.1500   -22.7970 hc         1 4E0       0.033700
     37 H14         19.9470   -19.0460   -39.9720 hc         1 4E0       0.031367
     38 H15         20.8450   -17.7220   -40.7450 hc         1 4E0       0.031367
     39 H16         21.3080   -18.2840   -39.1220 hc         1 4E0       0.031367
     40 H17         18.6340   -16.9340   -39.8330 hc         1 4E0       0.036700
     41 H18         19.0940   -17.4900   -38.2240 hc         1 4E0       0.036700
     42 H19         21.0030   -15.8540   -38.2030 hc         1 4E0       0.035700
     43 H20         20.5440   -15.2970   -39.8130 hc         1 4E0       0.035700
     44 H21         18.3220   -14.5380   -38.9170 hc         1 4E0       0.037700
     45 H22         18.7810   -15.1080   -37.3120 hc         1 4E0       0.037700
     46 H23         20.6830   -13.4630   -37.2660 hc         1 4E0       0.036700
     47 H24         20.2710   -12.9360   -38.8870 hc         1 4E0       0.036700
     48 H25         19.4320   -11.3060   -37.2770 hc         1 4E0       0.036200
     49 H26         18.0970   -12.0500   -38.1300 hc         1 4E0       0.036200
     50 H27         17.5720   -11.7440   -35.7370 hc         1 4E0       0.036700
     51 H28         17.5060   -13.4330   -36.1900 hc         1 4E0       0.036700
     52 H29         18.5410   -13.1950   -33.9910 hc         1 4E0       0.038200
     53 H30         19.7090   -13.8540   -35.1220 hc         1 4E0       0.038200
     54 H31         20.7990   -11.5960   -35.3290 hc         1 4E0       0.037200
     55 H32         19.5560   -10.8950   -34.3010 hc         1 4E0       0.037200
     56 H33         21.4690   -14.1790   -33.6690 hc         1 4E0       0.037700
     57 H34         22.6670   -13.0380   -34.2650 hc         1 4E0       0.037700
     58 H35         22.2180   -13.7700   -31.3140 hc         1 4E0       0.038700
     59 H36         23.4500   -14.4700   -32.3550 hc         1 4E0       0.038700
     60 H37         24.1410   -13.0440   -29.7270 hc         1 4E0       0.049200
     61 H38         25.3410   -13.6980   -30.8410 hc         1 4E0       0.049200
     62 H39         27.3330   -12.8830   -29.3570 h1         1 4E0       0.032200
     63 H40         27.3850   -11.1880   -28.8520 h1         1 4E0       0.032200
     64 H41         29.8980   -11.0200   -25.6040 hc         1 4E0       0.038200
     65 H42         29.9060   -12.4430   -24.5710 hc         1 4E0       0.038200
     66 F1          25.0820    -9.9900   -27.5900 f          1 4E0      -0.341400
@<TRIPOS>BOND
     1     1    15 1   
     2     1    16 1   
     3     1    24 1   
     4     1    25 1   
     5     2    17 1   
     6     2    18 1   
     7     2    26 1   
     8     2    27 1   
     9     3    18 1   
    10     3    19 1   
    11     3    28 1   
    12     3    29 1   
    13     4     5 1   
    14     4    23 1   
    15     4    30 1   
    16     4    31 1   
    17     5    20 1   
    18     5    32 1   
    19     5    33 1   
    20     6    20 1   
    21     6    34 1   
    22     6    35 1   
    23     6    36 1   
    24     7     8 1   
    25     7    37 1   
    26     7    38 1   
    27     7    39 1   
    28     8     9 1   
    29     8    40 1   
    30     8    41 1   
    31     9    10 1   
    32     9    42 1   
    33     9    43 1   
    34    10    11 1   
    35    10    44 1   
    36    10    45 1   
    37    11    12 1   
    38    11    46 1   
    39    11    47 1   
    40    12    13 1   
    41    12    48 1   
    42    12    49 1   
    43    13    14 1   
    44    13    50 1   
    45    13    51 1   
    46    14    15 1   
    47    14    52 1   
    48    14    53 1   
    49    15    54 1   
    50    15    55 1   
    51    16    17 1   
    52    16    56 1   
    53    16    57 1   
    54    17    58 1   
    55    17    59 1   
    56    18    60 1   
    57    18    61 1   
    58    19    21 1   
    59    19    62 1   
    60    19    63 1   
    61    20    64 1   
    62    20    65 1   
    63    21    23 1   
    64    22    23 2   
    65    23    66 1   
@<TRIPOS>SUBSTRUCTURE
     1 4E0         1 TEMP              0 ****  ****    0 ROOT
