@<TRIPOS>MOLECULE
4E0
   66    65     1     0     0
SMALL
bcc


@<TRIPOS>ATOM
      1 C10         21.0620   -11.6800   -33.5830 c3         1 4E0      -0.074400
      2 C13         23.5460   -11.6300   -31.7230 c3         1 4E0      -0.077400
      3 C15         24.9080   -10.5790   -29.8720 c3         1 4E0      -0.078400
      4 C21         27.1100   -11.1410   -25.7640 c3         1 4E0      -0.330600
      5 C22         27.7060   -12.5400   -25.9370 c3         1 4E0      -0.047400
      6 C24         29.7340   -12.0900   -24.4460 c3         1 4E0      -0.089100
      7 C01         20.6860   -18.6490   -38.9290 c3         1 4E0      -0.088100
      8 C02         19.7430   -17.5450   -38.4710 c3         1 4E0      -0.075400
      9 C03         20.3890   -16.1650   -38.4900 c3         1 4E0      -0.076400
     10 C04         19.4510   -15.0550   -38.0320 c3         1 4E0      -0.075400
     11 C05         20.1130   -13.6820   -38.0210 c3         1 4E0      -0.072400
     12 C06         19.1670   -12.5310   -37.6830 c3         1 4E0      -0.070400
     13 C07         18.4450   -12.6590   -36.3420 c3         1 4E0      -0.072400
     14 C08         19.3550   -12.8050   -35.1250 c3         1 4E0      -0.074400
     15 C09         20.2580   -11.6010   -34.8800 c3         1 4E0      -0.074400
     16 C11         22.1840   -12.7120   -33.6100 c3         1 4E0      -0.073400
     17 C12         22.8980   -12.8960   -32.2720 c3         1 4E0      -0.073400
     18 C14         24.3400   -11.8720   -30.4430 c3         1 4E0      -0.070400
     19 C16         25.7990   -10.7530   -28.6620 c3         1 4E0       0.201400
     20 C23         29.2260   -12.5450   -25.8070 c3         1 4E0      -0.070400
     21 O17         25.0500   -11.3630   -27.5910 os         1 4E0      -0.583200
     22 O19         24.4950   -11.9620   -25.1900 o          1 4E0      -0.759300
     23 P18         25.3390   -11.1110   -26.0480 p5         1 4E0       1.460300
     24 H1          21.4830   -10.6930   -33.3730 hc         1 4E0       0.037700
     25 H2          20.3830   -11.8990   -32.7510 hc         1 4E0       0.037700
     26 H3          24.2060   -11.1980   -32.4840 hc         1 4E0       0.036700
     27 H4          22.7790   -10.8750   -31.5260 hc         1 4E0       0.036700
     28 H5          25.5180   -10.0820   -30.6320 hc         1 4E0       0.049700
     29 H6          24.0980    -9.8860   -29.6310 hc         1 4E0       0.049700
     30 H7          27.5960   -10.4290   -26.4370 hc         1 4E0       0.083700
     31 H8          27.2720   -10.7700   -24.7490 hc         1 4E0       0.083700
     32 H9          27.4370   -12.9420   -26.9180 hc         1 4E0       0.049200
     33 H10         27.2720   -13.2150   -25.1950 hc         1 4E0       0.049200
     34 H11         30.8170   -12.1910   -24.3800 hc         1 4E0       0.033700
     35 H12         29.4950   -11.0440   -24.2480 hc         1 4E0       0.033700
     36 H13         29.2970   -12.6870   -23.6430 hc         1 4E0       0.033700
     37 H14         20.2010   -19.6260   -38.9090 hc         1 4E0       0.031367
     38 H15         21.0330   -18.4740   -39.9490 hc         1 4E0       0.031367
     39 H16         21.5670   -18.7050   -38.2870 hc         1 4E0       0.031367
     40 H17         18.8520   -17.5360   -39.1060 hc         1 4E0       0.036700
     41 H18         19.3890   -17.7620   -37.4580 hc         1 4E0       0.036700
     42 H19         21.2790   -16.1740   -37.8510 hc         1 4E0       0.035700
     43 H20         20.7470   -15.9460   -39.5020 hc         1 4E0       0.035700
     44 H21         18.5710   -15.0300   -38.6850 hc         1 4E0       0.037700
     45 H22         19.0790   -15.2990   -37.0320 hc         1 4E0       0.037700
     46 H23         20.9550   -13.6940   -37.3200 hc         1 4E0       0.036700
     47 H24         20.5530   -13.4910   -39.0050 hc         1 4E0       0.036700
     48 H25         19.7290   -11.5930   -37.7090 hc         1 4E0       0.036200
     49 H26         18.4150   -12.4470   -38.4740 hc         1 4E0       0.036200
     50 H27         17.8060   -11.7800   -36.2040 hc         1 4E0       0.036700
     51 H28         17.7650   -13.5150   -36.3780 hc         1 4E0       0.036700
     52 H29         18.7280   -12.9550   -34.2400 hc         1 4E0       0.038200
     53 H30         19.9540   -13.7160   -35.2200 hc         1 4E0       0.038200
     54 H31         20.9500   -11.4680   -35.7200 hc         1 4E0       0.037200
     55 H32         19.6360   -10.7000   -34.8590 hc         1 4E0       0.037200
     56 H33         21.7880   -13.6820   -33.9250 hc         1 4E0       0.037700
     57 H34         22.9150   -12.4230   -34.3740 hc         1 4E0       0.037700
     58 H35         22.1870   -13.2840   -31.5340 hc         1 4E0       0.038700
     59 H36         23.6650   -13.6690   -32.3870 hc         1 4E0       0.038700
     60 H37         23.6940   -12.3560   -29.7050 hc         1 4E0       0.049200
     61 H38         25.1560   -12.5740   -30.6460 hc         1 4E0       0.049200
     62 H39         26.6460   -11.4020   -28.8960 h1         1 4E0       0.032200
     63 H40         26.1920    -9.7810   -28.3540 h1         1 4E0       0.032200
     64 H41         29.6560   -11.9150   -26.5910 hc         1 4E0       0.038200
     65 H42         29.5810   -13.5600   -26.0030 hc         1 4E0       0.038200
     66 F1          25.0030    -9.5560   -25.8780 f          1 4E0      -0.341400
@<TRIPOS>BOND
     1     1    15 1   
     2     1    16 1   
     3     1    24 1   
     4     1    25 1   
     5     2    17 1   
     6     2    18 1   
     7     2    26 1   
     8     2    27 1   
     9     3    18 1   
    10     3    19 1   
    11     3    28 1   
    12     3    29 1   
    13     4     5 1   
    14     4    23 1   
    15     4    30 1   
    16     4    31 1   
    17     5    20 1   
    18     5    32 1   
    19     5    33 1   
    20     6    20 1   
    21     6    34 1   
    22     6    35 1   
    23     6    36 1   
    24     7     8 1   
    25     7    37 1   
    26     7    38 1   
    27     7    39 1   
    28     8     9 1   
    29     8    40 1   
    30     8    41 1   
    31     9    10 1   
    32     9    42 1   
    33     9    43 1   
    34    10    11 1   
    35    10    44 1   
    36    10    45 1   
    37    11    12 1   
    38    11    46 1   
    39    11    47 1   
    40    12    13 1   
    41    12    48 1   
    42    12    49 1   
    43    13    14 1   
    44    13    50 1   
    45    13    51 1   
    46    14    15 1   
    47    14    52 1   
    48    14    53 1   
    49    15    54 1   
    50    15    55 1   
    51    16    17 1   
    52    16    56 1   
    53    16    57 1   
    54    17    58 1   
    55    17    59 1   
    56    18    60 1   
    57    18    61 1   
    58    19    21 1   
    59    19    62 1   
    60    19    63 1   
    61    20    64 1   
    62    20    65 1   
    63    21    23 1   
    64    22    23 2   
    65    23    66 1   
@<TRIPOS>SUBSTRUCTURE
     1 4E0         1 TEMP              0 ****  ****    0 ROOT
