@<TRIPOS>MOLECULE
4E1
   29    32     1     0     0
SMALL
bcc


@<TRIPOS>ATOM
      1 C4           2.2720     1.6140     0.0330 ca         1 4E1      -0.171300
      2 C5           2.0440     3.0030     0.0510 ca         1 4E1      -0.108000
      3 C6           1.2610     0.6260     0.0470 ca         1 4E1      -0.014200
      4 N1           3.8880    -0.2200    -0.0360 nb         1 4E1      -0.680000
      5 C7           1.5660    -0.7340     0.0610 cp         1 4E1      -0.170300
      6 C8           0.3020    -1.4330     0.0570 cp         1 4E1      -0.036000
      7 C9          -0.0870    -2.7730     0.0510 ca         1 4E1      -0.017000
      8 C10         -1.4350    -3.0820     0.0280 ca         1 4E1      -0.192000
      9 C11         -2.4150    -2.0840     0.0210 ca         1 4E1      -0.081000
     10 C12         -2.0480    -0.7520     0.0320 ca         1 4E1       0.019900
     11 C13         -0.6950    -0.4300     0.0470 ca         1 4E1      -0.015200
     12 C14          2.9330    -1.1120     0.0040 ca         1 4E1       0.448800
     13 C15          3.3740    -2.5690     0.0420 c          1 4E1       0.828100
     14 I           -3.4980     0.7630     0.0230 i          1 4E1      -0.228900
     15 N           -0.0870     0.7960     0.0480 na         1 4E1      -0.163300
     16 O            2.8390    -3.2570     0.9310 o          1 4E1      -0.800800
     17 O1           4.2280    -2.9160    -0.7870 o          1 4E1      -0.800800
     18 C3           3.5930     1.1080    -0.0090 ca         1 4E1       0.430600
     19 C            3.1040     3.8740     0.0330 ca         1 4E1      -0.160000
     20 C1           4.4210     3.3820    -0.0060 ca         1 4E1      -0.140000
     21 C2           4.6610     2.0310    -0.0260 ca         1 4E1      -0.168300
     22 H1           1.0320     3.3900     0.0830 ha         1 4E1       0.109000
     23 H2           0.6530    -3.5570     0.0690 ha         1 4E1       0.188000
     24 H3          -1.7470    -4.1180     0.0210 ha         1 4E1       0.126000
     25 H4          -3.4590    -2.3640     0.0080 ha         1 4E1       0.125000
     26 H5          -0.5650     1.6820     0.0290 hn         1 4E1       0.298700
     27 H7           2.9290     4.9410     0.0490 ha         1 4E1       0.113000
     28 H8           5.2500     4.0770    -0.0190 ha         1 4E1       0.115000
     29 H9           5.6730     1.6460    -0.0570 ha         1 4E1       0.145000
@<TRIPOS>BOND
     1     1     2 ar  
     2     1     3 ar  
     3     1    18 ar  
     4     2    19 ar  
     5     2    22 1   
     6     3     5 ar  
     7     3    15 1   
     8     4    12 ar  
     9     4    18 ar  
    10     5     6 1   
    11     5    12 ar  
    12     6     7 ar  
    13     6    11 ar  
    14     7     8 ar  
    15     7    23 1   
    16     8     9 ar  
    17     8    24 1   
    18     9    10 ar  
    19     9    25 1   
    20    10    11 ar  
    21    10    14 1   
    22    11    15 1   
    23    12    13 1   
    24    13    16 1   
    25    13    17 1   
    26    15    26 1   
    27    18    21 ar  
    28    19    20 ar  
    29    19    27 1   
    30    20    21 ar  
    31    20    28 1   
    32    21    29 1   
@<TRIPOS>SUBSTRUCTURE
     1 4E1         1 TEMP              0 ****  ****    0 ROOT
