@<TRIPOS>MOLECULE
4E1
   29    32     1     0     0
SMALL
No Charge or Current Charge


@<TRIPOS>ATOM
      1 C4           2.3360     1.6150     0.0450 ca         1 4E1      -0.106000
      2 C5           2.0570     2.9960     0.0420 ca         1 4E1      -0.090000
      3 C6           1.3200     0.6540     0.0880 ca         1 4E1      -0.014200
      4 N1           3.9720    -0.1910     0.0030 nb         1 4E1      -0.680000
      5 C7           1.5890    -0.7130     0.0790 cp         1 4E1      -0.105000
      6 C8           0.2930    -1.4190     0.0610 cp         1 4E1      -0.036000
      7 C9          -0.0690    -2.7820    -0.0560 ca         1 4E1       0.001000
      8 C10         -1.4410    -3.1240    -0.0760 ca         1 4E1      -0.174000
      9 C11         -2.4410    -2.1240    -0.0020 ca         1 4E1      -0.063000
     10 C12         -2.0810    -0.7650     0.0800 ca         1 4E1       0.157000
     11 C13         -0.7170    -0.4550     0.1060 ca         1 4E1      -0.015200
     12 C14          2.9550    -1.1170     0.0600 ca         1 4E1       0.383500
     13 C15          3.2610    -2.6310     0.1490 c          1 4E1       0.617500
     14 I           -3.5880     0.7920     0.1460 i          1 4E1      -0.366000
     15 N           -0.0730     0.7890     0.1300 na         1 4E1      -0.213600
     16 O            2.7980    -3.2770     1.0850 o          1 4E1      -0.695500
     17 O1           4.0420    -3.1280    -0.6590 o          1 4E1      -0.695500
     18 C3           3.6730     1.1380    -0.0070 ca         1 4E1       0.300000
     19 C            3.1130     3.9190    -0.0120 ca         1 4E1      -0.142000
     20 C1           4.4400     3.4650    -0.0640 ca         1 4E1      -0.122000
     21 C2           4.7140     2.0850    -0.0610 ca         1 4E1      -0.085000
     22 H1           1.0320     3.3570     0.0800 ha         1 4E1       0.091000
     23 H2           0.6780    -3.5650    -0.1450 ha         1 4E1       0.170000
     24 H3          -1.7320    -4.1690    -0.1590 ha         1 4E1       0.108000
     25 H4          -3.4920    -2.4020    -0.0250 ha         1 4E1       0.107000
     26 H5          -0.5610     1.6770     0.1630 hn         1 4E1       0.349000
     27 H7           2.9030     4.9860    -0.0150 ha         1 4E1       0.095000
     28 H8           5.2590     4.1800    -0.1060 ha         1 4E1       0.097000
     29 H9           5.7450     1.7430    -0.1000 ha         1 4E1       0.127000
@<TRIPOS>BOND
     1     1     2 ar  
     2     1     3 ar  
     3     1    18 ar  
     4     2    19 ar  
     5     2    22 1   
     6     3     5 ar  
     7     3    15 1   
     8     4    12 ar  
     9     4    18 ar  
    10     5     6 1   
    11     5    12 ar  
    12     6     7 ar  
    13     6    11 ar  
    14     7     8 ar  
    15     7    23 1   
    16     8     9 ar  
    17     8    24 1   
    18     9    10 ar  
    19     9    25 1   
    20    10    11 ar  
    21    10    14 1   
    22    11    15 1   
    23    12    13 1   
    24    13    16 1   
    25    13    17 1   
    26    15    26 1   
    27    18    21 ar  
    28    19    20 ar  
    29    19    27 1   
    30    20    21 ar  
    31    20    28 1   
    32    21    29 1   
@<TRIPOS>SUBSTRUCTURE
     1 4E1         1 TEMP              0 ****  ****    0 ROOT
