@<TRIPOS>MOLECULE
4E3
   29    32     1     0     0
SMALL
No Charge or Current Charge


@<TRIPOS>ATOM
      1 OAA         -3.1960     3.9630     1.0830 o          1 4E3      -0.691500
      2 CAM         -2.3960     4.0170     0.1530 c          1 4E3       0.617500
      3 OAB         -2.3930     4.9490    -0.6480 o          1 4E3      -0.691500
      4 CAP         -1.2770     2.9520     0.0640 ca         1 4E3       0.393500
      5 NAK          0.0490     3.3200     0.0180 nb         1 4E3      -0.683000
      6 CAQ          1.0140     2.3610     0.0050 ca         1 4E3       0.313000
      7 CAI          2.3690     2.7390    -0.0380 ca         1 4E3      -0.085000
      8 CAG          3.3930     1.7730    -0.0440 ca         1 4E3      -0.098000
      9 CAN          3.0710     0.4080    -0.0050 ca         1 4E3       0.176000
     10 CAJ          1.7280     0.0040     0.0380 ca         1 4E3      -0.052000
     11 CAR          0.7060     0.9740     0.0440 ca         1 4E3      -0.113000
     12 CAU         -0.6480     0.6250     0.0770 ca         1 4E3      -0.010200
     13 CAV         -1.6620     1.5810     0.0700 cp         1 4E3      -0.107000
     14 CAS         -2.9490     0.8600     0.0370 cp         1 4E3      -0.036000
     15 CAH         -4.2950     1.2800    -0.0840 ca         1 4E3      -0.002000
     16 CAE         -5.3150     0.3000    -0.1200 ca         1 4E3      -0.169000
     17 CAF         -5.0020    -1.0790    -0.0580 ca         1 4E3      -0.065000
     18 CAO         -3.6590    -1.4970     0.0290 ca         1 4E3      -0.059900
     19 BrA         -3.2070    -3.3560     0.0740 br         1 4E3      -0.139100
     20 CAT         -2.6720    -0.5080     0.0710 ca         1 4E3      -0.018200
     21 NAL         -1.2780    -0.6260     0.1030 na         1 4E3      -0.209600
     22 I            4.6490    -1.0750    -0.0140 i          1 4E3      -0.364000
     23 H2           2.6280     3.7940    -0.0670 ha         1 4E3       0.132000
     24 H3           4.4340     2.0830    -0.0770 ha         1 4E3       0.114000
     25 H4           1.4920    -1.0560     0.0660 ha         1 4E3       0.107000
     26 H5          -4.5600     2.3290    -0.1640 ha         1 4E3       0.170000
     27 H6          -6.3530     0.6110    -0.2070 ha         1 4E3       0.109000
     28 H7          -5.7990    -1.8180    -0.0930 ha         1 4E3       0.111000
     29 H8          -0.7890    -1.5140     0.1320 hn         1 4E3       0.352000
@<TRIPOS>BOND
     1     1     2 1   
     2     2     3 1   
     3     2     4 1   
     4     4     5 ar  
     5     4    13 ar  
     6     5     6 ar  
     7     6     7 ar  
     8     6    11 ar  
     9     7     8 ar  
    10     7    23 1   
    11     8     9 ar  
    12     8    24 1   
    13     9    10 ar  
    14     9    22 1   
    15    10    11 ar  
    16    10    25 1   
    17    11    12 ar  
    18    12    13 ar  
    19    12    21 1   
    20    13    14 1   
    21    14    15 ar  
    22    14    20 ar  
    23    15    16 ar  
    24    15    26 1   
    25    16    17 ar  
    26    16    27 1   
    27    17    18 ar  
    28    17    28 1   
    29    18    19 1   
    30    18    20 ar  
    31    20    21 1   
    32    21    29 1   
@<TRIPOS>SUBSTRUCTURE
     1 4E3         1 TEMP              0 ****  ****    0 ROOT
