@<TRIPOS>MOLECULE
4E3
   29    32     1     0     0
SMALL
abcg2


@<TRIPOS>ATOM
      1 OAA         -3.1270     4.0130     0.9410 o          1 4E3      -0.691500
      2 CAM         -2.2800     4.0740     0.0320 c          1 4E3       0.617500
      3 OAB         -2.1390     4.9520    -0.8300 o          1 4E3      -0.691500
      4 CAP         -1.2800     2.9260     0.0070 ca         1 4E3       0.393500
      5 NAK         -0.0160     3.2610    -0.0180 nb         1 4E3      -0.683000
      6 CAQ          0.9470     2.3040     0.0080 ca         1 4E3       0.313000
      7 CAI          2.2970     2.7130     0.0090 ca         1 4E3      -0.085000
      8 CAG          3.3180     1.7990     0.0230 ca         1 4E3      -0.098000
      9 CAN          3.0180     0.4250     0.0370 ca         1 4E3       0.176000
     10 CAJ          1.7220    -0.0220     0.0370 ca         1 4E3      -0.052000
     11 CAR          0.6720     0.9150     0.0260 ca         1 4E3      -0.113000
     12 CAU         -0.7010     0.5830     0.0270 ca         1 4E3      -0.010200
     13 CAV         -1.6870     1.5680     0.0500 cp         1 4E3      -0.107000
     14 CAS         -2.9540     0.8760     0.0360 cp         1 4E3      -0.036000
     15 CAH         -4.2950     1.2650     0.0400 ca         1 4E3      -0.002000
     16 CAE         -5.2760     0.2920     0.0000 ca         1 4E3      -0.169000
     17 CAF         -4.9570    -1.0690    -0.0330 ca         1 4E3      -0.065000
     18 CAO         -3.6360    -1.4690    -0.0280 ca         1 4E3      -0.059900
     19 BRA         -3.1710    -3.2940    -0.0690 br         1 4E3      -0.139100
     20 CAT         -2.6390    -0.5000     0.0050 ca         1 4E3      -0.018200
     21 NAL         -1.2780    -0.6460     0.0070 na         1 4E3      -0.209600
     22 I            4.5990    -0.9600     0.0580 i          1 4E3      -0.364000
     23 H2           2.5140     3.7730    -0.0030 ha         1 4E3       0.132000
     24 H3           4.3450     2.1390     0.0230 ha         1 4E3       0.114000
     25 H4           1.5040    -1.0820     0.0500 ha         1 4E3       0.107000
     26 H5          -4.5610     2.3100     0.0820 ha         1 4E3       0.170000
     27 H6          -6.3190     0.5810     0.0010 ha         1 4E3       0.109000
     28 H7          -5.7500    -1.8050    -0.0600 ha         1 4E3       0.111000
     29 H8          -0.7890    -1.5260    -0.0150 hn         1 4E3       0.352000
@<TRIPOS>BOND
     1     1     2 1   
     2     2     3 1   
     3     2     4 1   
     4     4     5 ar  
     5     4    13 ar  
     6     5     6 ar  
     7     6     7 ar  
     8     6    11 ar  
     9     7     8 ar  
    10     7    23 1   
    11     8     9 ar  
    12     8    24 1   
    13     9    10 ar  
    14     9    22 1   
    15    10    11 ar  
    16    10    25 1   
    17    11    12 ar  
    18    12    13 ar  
    19    12    21 1   
    20    13    14 1   
    21    14    15 ar  
    22    14    20 ar  
    23    15    16 ar  
    24    15    26 1   
    25    16    17 ar  
    26    16    27 1   
    27    17    18 ar  
    28    17    28 1   
    29    18    19 1   
    30    18    20 ar  
    31    20    21 1   
    32    21    29 1   
@<TRIPOS>SUBSTRUCTURE
     1 4E3         1 TEMP              0 ****  ****    0 ROOT
