@<TRIPOS>MOLECULE
4E4
   37    37     1     0     0
SMALL
No Charge or Current Charge


@<TRIPOS>ATOM
      1 C12          2.3930    -1.3500    -0.7010 c3         1 4E4      -0.065900
      2 C13          2.0680    -2.4480     0.3430 c3         1 4E4      -0.092100
      3 C16          2.7350     1.0560    -1.3810 c3         1 4E4       0.168600
      4 C15          4.8660    -0.0650     0.7220 c3         1 4E4      -0.092100
      5 C1          -1.5390    -0.0390    -0.0700 ca         1 4E4      -0.080000
      6 C2          -2.1720     1.0010     0.6440 ca         1 4E4      -0.080000
      7 C6          -2.3530    -1.0410    -0.6410 ca         1 4E4       0.294900
      8 C4          -4.2990    -0.0680     0.1570 ca         1 4E4       0.329300
      9 C3          -3.5730     0.9770     0.7570 ca         1 4E4      -0.142000
     10 C9           0.9380     0.5700     0.3070 c          1 4E4       0.622100
     11 C11          2.3690     0.1370    -0.1750 c3         1 4E4      -0.118000
     12 C14          3.3930     0.3140     1.0110 c3         1 4E4      -0.065900
     13 O17          2.7500     2.4400    -1.0170 oh         1 4E4      -0.650000
     14 N8          -0.1290    -0.1250    -0.2610 ns         1 4E4      -0.148000
     15 N5          -3.7020    -1.0640    -0.5330 nb         1 4E4      -0.657000
     16 H1           3.3810    -1.5710    -1.1240 hc         1 4E4       0.051450
     17 H2           1.7060    -1.4610    -1.5490 hc         1 4E4       0.051450
     18 H3           2.8400    -2.4970     1.1200 hc         1 4E4       0.036533
     19 H4           1.1010    -2.2760     0.8280 hc         1 4E4       0.036533
     20 H5           2.0300    -3.4290    -0.1450 hc         1 4E4       0.036533
     21 H6           3.7150     0.7650    -1.7810 h1         1 4E4       0.019200
     22 H7           2.0030     0.8960    -2.1850 h1         1 4E4       0.019200
     23 H8           5.2700     0.5100    -0.1190 hc         1 4E4       0.036533
     24 H9           5.4860     0.1510     1.6000 hc         1 4E4       0.036533
     25 H10          4.9720    -1.1330     0.5010 hc         1 4E4       0.036533
     26 H11         -1.6170     1.8170     1.0970 ha         1 4E4       0.147000
     27 H12         -6.1170    -0.8400     1.0390 hc         1 4E4       0.049033
     28 H13         -6.2380     0.8450     0.5060 hc         1 4E4       0.049033
     29 H14         -6.2610    -0.4590    -0.6870 hc         1 4E4       0.049033
     30 H15         -1.9070    -1.8590    -1.2050 h4         1 4E4       0.010100
     31 H16         -4.0920     1.7620     1.3010 ha         1 4E4       0.123000
     32 H17          3.0510    -0.2650     1.8770 hc         1 4E4       0.051450
     33 H18          3.3870     1.3600     1.3430 hc         1 4E4       0.051450
     34 H19          3.0460     2.9430    -1.8070 ho         1 4E4       0.447000
     35 H20          0.1480    -0.8170    -0.9450 hn         1 4E4       0.149000
     36 C7          -5.8110    -0.1340     0.2580 c3         1 4E4      -0.139400
     37 O10          0.7720     1.3830     1.2120 o          1 4E4      -0.571100
@<TRIPOS>BOND
     1     1     2 1   
     2     1    11 1   
     3     1    16 1   
     4     1    17 1   
     5     2    18 1   
     6     2    19 1   
     7     2    20 1   
     8     3    11 1   
     9     3    13 1   
    10     3    21 1   
    11     3    22 1   
    12     4    12 1   
    13     4    23 1   
    14     4    24 1   
    15     4    25 1   
    16     5     6 ar  
    17     5     7 ar  
    18     5    14 1   
    19     6     9 ar  
    20     6    26 1   
    21     7    15 ar  
    22     7    30 1   
    23     8     9 ar  
    24     8    15 ar  
    25     8    36 1   
    26     9    31 1   
    27    10    11 1   
    28    10    14 1   
    29    10    37 2   
    30    11    12 1   
    31    12    32 1   
    32    12    33 1   
    33    13    34 1   
    34    14    35 1   
    35    27    36 1   
    36    28    36 1   
    37    29    36 1   
@<TRIPOS>SUBSTRUCTURE
     1 4E4         1 TEMP              0 ****  ****    0 ROOT
