@<TRIPOS>MOLECULE
4E4
   37    37     1     0     0
SMALL
bcc


@<TRIPOS>ATOM
      1 C12          2.4290    -1.4520    -0.5740 c3         1 4E4      -0.065900
      2 C13          2.1900    -2.4740     0.5280 c3         1 4E4      -0.092100
      3 C16          2.5550     0.9030    -1.3590 c3         1 4E4       0.145400
      4 C15          4.7940     0.0390     0.6330 c3         1 4E4      -0.092100
      5 C1          -1.4730     0.0830    -0.1980 ca         1 4E4      -0.052700
      6 C2          -2.0780     1.0090     0.6470 ca         1 4E4      -0.098000
      7 C6          -2.3070    -0.8130    -0.8640 ca         1 4E4       0.360200
      8 C4          -4.2070     0.0330     0.0890 ca         1 4E4       0.394600
      9 C3          -3.4550     0.9720     0.7880 ca         1 4E4      -0.225300
     10 C9           0.9100     0.3110     0.4090 c          1 4E4       0.689100
     11 C11          2.3220     0.0200    -0.1280 c3         1 4E4      -0.118000
     12 C14          3.3410     0.3400     0.9810 c3         1 4E4      -0.065900
     13 O17          2.3210     2.2440    -1.0120 oh         1 4E4      -0.587800
     14 N8          -0.1010     0.0170    -0.4540 ns         1 4E4      -0.474100
     15 N5          -3.6220    -0.8360    -0.7330 nb         1 4E4      -0.657000
     16 H1           3.4210    -1.6070    -1.0040 hc         1 4E4       0.051450
     17 H2           1.7380    -1.6480    -1.3990 hc         1 4E4       0.051450
     18 H3           2.9300    -2.3980     1.3250 hc         1 4E4       0.036533
     19 H4           1.2020    -2.3640     0.9800 hc         1 4E4       0.036533
     20 H5           2.2490    -3.4840     0.1230 hc         1 4E4       0.036533
     21 H6           3.5800     0.7440    -1.7150 h1         1 4E4       0.019200
     22 H7           1.8990     0.5800    -2.1800 h1         1 4E4       0.019200
     23 H8           5.1460     0.6120    -0.2250 hc         1 4E4       0.036533
     24 H9           5.4330     0.3040     1.4760 hc         1 4E4       0.036533
     25 H10          4.9650    -1.0160     0.4190 hc         1 4E4       0.036533
     26 H11         -1.5020     1.7530     1.1740 ha         1 4E4       0.165000
     27 H12         -5.9580    -0.8290     0.9730 hc         1 4E4       0.049033
     28 H13         -6.1190     0.8810     0.6000 hc         1 4E4       0.049033
     29 H14         -6.1710    -0.3220    -0.6960 hc         1 4E4       0.049033
     30 H15         -1.8750    -1.5420    -1.5440 h4         1 4E4       0.010100
     31 H16         -3.9460     1.6850     1.4370 ha         1 4E4       0.141000
     32 H17          3.0740    -0.2190     1.8800 hc         1 4E4       0.051450
     33 H18          3.2560     1.3920     1.2540 hc         1 4E4       0.051450
     34 H19          2.5150     2.7940    -1.7770 ho         1 4E4       0.408000
     35 H20          0.1470    -0.4340    -1.3210 hn         1 4E4       0.315500
     36 C7          -5.6940    -0.0570     0.2470 c3         1 4E4      -0.139400
     37 O10          0.7000     0.7650     1.5170 o          1 4E4      -0.571100
@<TRIPOS>BOND
     1     1     2 1   
     2     1    11 1   
     3     1    16 1   
     4     1    17 1   
     5     2    18 1   
     6     2    19 1   
     7     2    20 1   
     8     3    11 1   
     9     3    13 1   
    10     3    21 1   
    11     3    22 1   
    12     4    12 1   
    13     4    23 1   
    14     4    24 1   
    15     4    25 1   
    16     5     6 ar  
    17     5     7 ar  
    18     5    14 1   
    19     6     9 ar  
    20     6    26 1   
    21     7    15 ar  
    22     7    30 1   
    23     8     9 ar  
    24     8    15 ar  
    25     8    36 1   
    26     9    31 1   
    27    10    11 1   
    28    10    14 1   
    29    10    37 2   
    30    11    12 1   
    31    12    32 1   
    32    12    33 1   
    33    13    34 1   
    34    14    35 1   
    35    27    36 1   
    36    28    36 1   
    37    29    36 1   
@<TRIPOS>SUBSTRUCTURE
     1 4E4         1 TEMP              0 ****  ****    0 ROOT
