@<TRIPOS>MOLECULE
4E5
   29    30     1     0     0
SMALL
No Charge or Current Charge


@<TRIPOS>ATOM
      1 N           -3.3020    -1.1770     0.0810 n7         1 4E5      -0.798400
      2 CA          -2.3100    -0.1270     0.5390 c5         1 4E5       0.020500
      3 CAM          2.7700    -0.8890     0.4530 ca         1 4E5      -0.126000
      4 CAQ         -3.3330    -1.0290    -1.3870 c5         1 4E5       0.140800
      5 CAR         -1.8290    -0.9680    -1.7310 c5         1 4E5      -0.116400
      6 CAY          1.7420    -1.8020     0.7230 ca         1 4E5       0.073100
      7 CAZ          2.4890     0.3420    -0.1850 ca         1 4E5      -0.115600
      8 C           -2.9280     1.2790     0.9630 c          1 4E5       0.725000
      9 OXT         -2.8120     1.6400     2.1280 o          1 4E5      -0.730500
     10 OAA          3.3130     2.3900    -1.0400 o          1 4E5      -0.733000
     11 OAC          4.7460     1.0570    -0.1610 o          1 4E5      -0.733000
     12 OAU          2.0270    -2.9830     1.3360 oh         1 4E5      -0.566100
     13 CB          -1.3340     0.0780    -0.6840 c5         1 4E5      -0.031400
     14 CG           0.1040    -0.2870    -0.2720 ca         1 4E5      -0.037300
     15 CD1          0.4200    -1.5080     0.3650 ca         1 4E5      -0.220000
     16 CD2          1.1480     0.6230    -0.5400 ca         1 4E5      -0.091000
     17 O           -3.5250     1.9700     0.1440 o          1 4E5      -0.730500
     18 H1          -2.9000    -2.0990     0.2810 hn         1 4E5       0.345000
     19 H3          -1.7780    -0.5010     1.4240 h1         1 4E5       0.044700
     20 H4           3.7890    -1.1390     0.7390 ha         1 4E5       0.126000
     21 H5          -3.8370    -1.8770    -1.8720 h1         1 4E5       0.036200
     22 H6          -3.8520    -0.1060    -1.6830 h1         1 4E5       0.036200
     23 H7          -1.3640    -1.9540    -1.6150 hc         1 4E5       0.022700
     24 H8          -1.6490    -0.6440    -2.7620 hc         1 4E5       0.022700
     25 H11          1.1900    -3.4830     1.4390 ho         1 4E5       0.432000
     26 H12         -1.4020     1.0920    -1.0940 hc         1 4E5       0.074700
     27 H13         -0.3660    -2.2270     0.5790 ha         1 4E5       0.079000
     28 H14          0.9110     1.5640    -1.0320 ha         1 4E5       0.137000
     29 CAV          3.6010     1.3390    -0.4850 c          1 4E5       0.714600
@<TRIPOS>BOND
     1     1     2 1   
     2     1     4 1   
     3     1    18 1   
     4     2     8 1   
     5     2    13 1   
     6     2    19 1   
     7     3     6 ar  
     8     3     7 ar  
     9     3    20 1   
    10     4     5 1   
    11     4    21 1   
    12     4    22 1   
    13     5    13 1   
    14     5    23 1   
    15     5    24 1   
    16     6    12 1   
    17     6    15 ar  
    18     7    16 ar  
    19     7    29 1   
    20     8     9 1   
    21     8    17 1   
    22    10    29 1   
    23    11    29 1   
    24    12    25 1   
    25    13    14 1   
    26    13    26 1   
    27    14    15 ar  
    28    14    16 ar  
    29    15    27 1   
    30    16    28 1   
@<TRIPOS>SUBSTRUCTURE
     1 4E5         1 TEMP              0 ****  ****    0 ROOT
