@<TRIPOS>MOLECULE
4E5
   29    30     1     0     0
SMALL
abcg2


@<TRIPOS>ATOM
      1 N           -3.3970    -1.0270     0.0730 n7         1 4E5      -0.798400
      2 CA          -2.3410    -0.1120     0.5030 c5         1 4E5       0.020500
      3 CAM          2.7620    -0.8820     0.4620 ca         1 4E5      -0.126000
      4 CAQ         -3.3500    -1.0180    -1.3820 c5         1 4E5       0.140800
      5 CAR         -1.8630    -0.9820    -1.7260 c5         1 4E5      -0.116400
      6 CAY          1.7630    -1.8290     0.6710 ca         1 4E5       0.073100
      7 CAZ          2.4480     0.3480    -0.1000 ca         1 4E5      -0.115600
      8 C           -2.8360     1.3070     0.8260 c          1 4E5       0.725000
      9 OXT         -2.0030     2.0300     1.4120 o          1 4E5      -0.730500
     10 OAA          3.1870     2.4780    -0.8070 o          1 4E5      -0.733000
     11 OAC          4.7030     1.0520    -0.0140 o          1 4E5      -0.733000
     12 OAU          2.1210    -3.0090     1.2290 oh         1 4E5      -0.566100
     13 CB          -1.2940    -0.0250    -0.6670 c5         1 4E5      -0.031400
     14 CG           0.1220    -0.3200    -0.2620 ca         1 4E5      -0.037300
     15 CD1          0.4520    -1.5510     0.3060 ca         1 4E5      -0.220000
     16 CD2          1.1270     0.6200    -0.4530 ca         1 4E5      -0.091000
     17 O           -3.9800     1.6350     0.4600 o          1 4E5      -0.730500
     18 H1          -3.1420    -1.9600     0.3770 hn         1 4E5       0.345000
     19 H3          -1.8680    -0.5160     1.4010 h1         1 4E5       0.044700
     20 H4           3.7840    -1.1070     0.7390 ha         1 4E5       0.126000
     21 H5          -3.8690    -1.8820    -1.7980 h1         1 4E5       0.036200
     22 H6          -3.8500    -0.1200    -1.7530 h1         1 4E5       0.036200
     23 H7          -1.4410    -1.9850    -1.6110 hc         1 4E5       0.022700
     24 H8          -1.6480    -0.6510    -2.7440 hc         1 4E5       0.022700
     25 H11          1.3450    -3.5700     1.3420 ho         1 4E5       0.432000
     26 H12         -1.3070     0.9860    -1.0840 hc         1 4E5       0.074700
     27 H13         -0.3180    -2.3010     0.4650 ha         1 4E5       0.079000
     28 H14          0.8790     1.5800    -0.8870 ha         1 4E5       0.137000
     29 CAV          3.5430     1.3850    -0.3270 c          1 4E5       0.714600
@<TRIPOS>BOND
     1     1     2 1   
     2     1     4 1   
     3     1    18 1   
     4     2     8 1   
     5     2    13 1   
     6     2    19 1   
     7     3     6 ar  
     8     3     7 ar  
     9     3    20 1   
    10     4     5 1   
    11     4    21 1   
    12     4    22 1   
    13     5    13 1   
    14     5    23 1   
    15     5    24 1   
    16     6    12 1   
    17     6    15 ar  
    18     7    16 ar  
    19     7    29 1   
    20     8     9 1   
    21     8    17 1   
    22    10    29 1   
    23    11    29 1   
    24    12    25 1   
    25    13    14 1   
    26    13    26 1   
    27    14    15 ar  
    28    14    16 ar  
    29    15    27 1   
    30    16    28 1   
@<TRIPOS>SUBSTRUCTURE
     1 4E5         1 TEMP              0 ****  ****    0 ROOT
