@<TRIPOS>MOLECULE
4E6
   44    43     1     0     0
SMALL
abcg2


@<TRIPOS>ATOM
      1 C1           8.8450    -1.1570     0.4540 c3         1 4E6      -0.088100
      2 C2           7.5180    -1.2650    -0.2840 c3         1 4E6      -0.074400
      3 C3           6.4290    -0.3930     0.3300 c3         1 4E6      -0.075400
      4 C4           5.0910    -0.4950    -0.3930 c3         1 4E6      -0.074400
      5 C5           4.0070     0.3780     0.2260 c3         1 4E6      -0.074400
      6 C6           2.6580     0.2520    -0.4700 c3         1 4E6      -0.074400
      7 C7           1.5750     1.1180     0.1630 c3         1 4E6      -0.075400
      8 C8           0.2040     0.9320    -0.4750 c3         1 4E6      -0.072400
      9 C9          -0.8760     1.7840     0.1970 c3         1 4E6      -0.043200
     10 C10         -2.2330     1.5450    -0.3780 c2         1 4E6      -0.205200
     11 C11         -3.2450     0.9730     0.2820 ce         1 4E6      -0.186000
     12 C12         -4.5540     0.7120    -0.2900 ce         1 4E6      -0.184000
     13 C13         -5.5560     0.1330     0.3780 c2         1 4E6      -0.203200
     14 C14         -6.9090    -0.1650    -0.1940 c3         1 4E6      -0.013000
     15 C15         -7.1700    -1.6430    -0.2260 c2         1 4E6      -0.212200
     16 C16         -8.1160    -2.2630     0.4690 c2         1 4E6      -0.320000
     17 H1           8.7410    -1.4580     1.4980 hc         1 4E6       0.031367
     18 H1A          9.6100    -1.7900     0.0030 hc         1 4E6       0.031367
     19 H1B          9.2180    -0.1310     0.4440 hc         1 4E6       0.031367
     20 H2           7.6570    -0.9870    -1.3330 hc         1 4E6       0.036700
     21 H2A          7.1860    -2.3080    -0.2880 hc         1 4E6       0.036700
     22 H3           6.2930    -0.6700     1.3810 hc         1 4E6       0.036700
     23 H3A          6.7610     0.6510     0.3330 hc         1 4E6       0.036700
     24 H4           5.2250    -0.2190    -1.4450 hc         1 4E6       0.036700
     25 H4A          4.7590    -1.5390    -0.3930 hc         1 4E6       0.036700
     26 H5           3.8910     0.1150     1.2830 hc         1 4E6       0.036700
     27 H5A          4.3300     1.4250     0.2080 hc         1 4E6       0.036700
     28 H6           2.7670     0.5170    -1.5270 hc         1 4E6       0.037700
     29 H6A          2.3390    -0.7960    -0.4510 hc         1 4E6       0.037700
     30 H7           1.5060     0.8840     1.2310 hc         1 4E6       0.037200
     31 H7A          1.8680     2.1720     0.1020 hc         1 4E6       0.037200
     32 H8           0.2560     1.1740    -1.5410 hc         1 4E6       0.040700
     33 H8A         -0.0850    -0.1220    -0.4120 hc         1 4E6       0.040700
     34 H9          -0.8860     1.5740     1.2700 hc         1 4E6       0.044200
     35 H9A         -0.6110     2.8410     0.0860 hc         1 4E6       0.044200
     36 H10         -2.3830     1.8410    -1.4150 ha         1 4E6       0.167000
     37 H11         -3.0970     0.6720     1.3170 ha         1 4E6       0.168000
     38 H12         -4.7080     1.0130    -1.3240 ha         1 4E6       0.168000
     39 H13         -5.3980    -0.1710     1.4100 ha         1 4E6       0.170000
     40 H14         -7.6830     0.3270     0.4040 hc         1 4E6       0.051200
     41 H14A        -6.9760     0.2420    -1.2070 hc         1 4E6       0.051200
     42 H15         -6.5100    -2.2240    -0.8640 ha         1 4E6       0.169000
     43 H16         -8.2520    -3.3350     0.4120 ha         1 4E6       0.161500
     44 H16A        -8.7940    -1.7210     1.1190 ha         1 4E6       0.161500
@<TRIPOS>BOND
     1     1     2 1   
     2     1    17 1   
     3     1    18 1   
     4     1    19 1   
     5     2     3 1   
     6     2    20 1   
     7     2    21 1   
     8     3     4 1   
     9     3    22 1   
    10     3    23 1   
    11     4     5 1   
    12     4    24 1   
    13     4    25 1   
    14     5     6 1   
    15     5    26 1   
    16     5    27 1   
    17     6     7 1   
    18     6    28 1   
    19     6    29 1   
    20     7     8 1   
    21     7    30 1   
    22     7    31 1   
    23     8     9 1   
    24     8    32 1   
    25     8    33 1   
    26     9    10 1   
    27     9    34 1   
    28     9    35 1   
    29    10    11 2   
    30    10    36 1   
    31    11    12 1   
    32    11    37 1   
    33    12    13 2   
    34    12    38 1   
    35    13    14 1   
    36    13    39 1   
    37    14    15 1   
    38    14    40 1   
    39    14    41 1   
    40    15    16 2   
    41    15    42 1   
    42    16    43 1   
    43    16    44 1   
@<TRIPOS>SUBSTRUCTURE
     1 4E6         1 TEMP              0 ****  ****    0 ROOT
