@<TRIPOS>MOLECULE
4E6
   44    43     1     0     0
SMALL
No Charge or Current Charge


@<TRIPOS>ATOM
      1 C1           8.8340    -1.2380     0.2430 c3         1 4E6      -0.088100
      2 C2           7.3750    -1.5370    -0.1520 c3         1 4E6      -0.074400
      3 C3           6.4050    -0.3900     0.2050 c3         1 4E6      -0.075400
      4 C4           4.9420    -0.6910    -0.1910 c3         1 4E6      -0.074400
      5 C5           3.9720     0.4560     0.1660 c3         1 4E6      -0.074400
      6 C6           2.5090     0.1550    -0.2300 c3         1 4E6      -0.074400
      7 C7           1.5390     1.3030     0.1270 c3         1 4E6      -0.075400
      8 C8           0.0760     1.0020    -0.2680 c3         1 4E6      -0.072400
      9 C9          -0.8960     2.1460     0.0870 c3         1 4E6      -0.043200
     10 C10         -2.3230     1.8320    -0.3130 c2         1 4E6      -0.205200
     11 C11         -3.1860     1.0780     0.3990 ce         1 4E6      -0.186000
     12 C12         -4.5590     0.8010    -0.0340 ce         1 4E6      -0.184000
     13 C13         -5.4210     0.0460     0.6770 c2         1 4E6      -0.203200
     14 C14         -6.8460    -0.2740     0.2790 c3         1 4E6      -0.013000
     15 C15         -6.8980    -1.5140    -0.5880 c2         1 4E6      -0.212200
     16 C16         -7.7220    -2.5570    -0.4020 c2         1 4E6      -0.320000
     17 H1           8.9190    -1.0750     1.3240 hc         1 4E6       0.031367
     18 H1A          9.4840    -2.0780    -0.0290 hc         1 4E6       0.031367
     19 H1B          9.2000    -0.3410    -0.2720 hc         1 4E6       0.031367
     20 H2           7.3310    -1.7290    -1.2310 hc         1 4E6       0.036700
     21 H2A          7.0520    -2.4570     0.3510 hc         1 4E6       0.036700
     22 H3           6.4540    -0.2000     1.2840 hc         1 4E6       0.036700
     23 H3A          6.7320     0.5280    -0.2980 hc         1 4E6       0.036700
     24 H4           4.8930    -0.8820    -1.2700 hc         1 4E6       0.036700
     25 H4A          4.6150    -1.6100     0.3120 hc         1 4E6       0.036700
     26 H5           4.0210     0.6470     1.2450 hc         1 4E6       0.036700
     27 H5A          4.2990     1.3750    -0.3370 hc         1 4E6       0.036700
     28 H6           2.4600    -0.0350    -1.3090 hc         1 4E6       0.037700
     29 H6A          2.1820    -0.7630     0.2740 hc         1 4E6       0.037700
     30 H7           1.5880     1.4930     1.2070 hc         1 4E6       0.037200
     31 H7A          1.8660     2.2210    -0.3760 hc         1 4E6       0.037200
     32 H8           0.0250     0.8110    -1.3480 hc         1 4E6       0.040700
     33 H8A         -0.2520     0.0830     0.2340 hc         1 4E6       0.040700
     34 H9          -0.8450     2.3420     1.1660 hc         1 4E6       0.044200
     35 H9A         -0.5660     3.0660    -0.4110 hc         1 4E6       0.044200
     36 H10         -2.6270     2.2740    -1.2640 ha         1 4E6       0.167000
     37 H11         -2.8700     0.6390     1.3480 ha         1 4E6       0.168000
     38 H12         -4.8740     1.2390    -0.9840 ha         1 4E6       0.168000
     39 H13         -5.1160    -0.3980     1.6270 ha         1 4E6       0.170000
     40 H14         -7.4650    -0.4040     1.1750 hc         1 4E6       0.051200
     41 H14A        -7.2780     0.5750    -0.2670 hc         1 4E6       0.051200
     42 H15         -6.1910    -1.5100    -1.4220 ha         1 4E6       0.169000
     43 H16         -7.7080    -3.4210    -1.0680 ha         1 4E6       0.161500
     44 H16A        -8.4380    -2.5850     0.4210 ha         1 4E6       0.161500
@<TRIPOS>BOND
     1     1     2 1   
     2     1    17 1   
     3     1    18 1   
     4     1    19 1   
     5     2     3 1   
     6     2    20 1   
     7     2    21 1   
     8     3     4 1   
     9     3    22 1   
    10     3    23 1   
    11     4     5 1   
    12     4    24 1   
    13     4    25 1   
    14     5     6 1   
    15     5    26 1   
    16     5    27 1   
    17     6     7 1   
    18     6    28 1   
    19     6    29 1   
    20     7     8 1   
    21     7    30 1   
    22     7    31 1   
    23     8     9 1   
    24     8    32 1   
    25     8    33 1   
    26     9    10 1   
    27     9    34 1   
    28     9    35 1   
    29    10    11 2   
    30    10    36 1   
    31    11    12 1   
    32    11    37 1   
    33    12    13 2   
    34    12    38 1   
    35    13    14 1   
    36    13    39 1   
    37    14    15 1   
    38    14    40 1   
    39    14    41 1   
    40    15    16 2   
    41    15    42 1   
    42    16    43 1   
    43    16    44 1   
@<TRIPOS>SUBSTRUCTURE
     1 4E6         1 TEMP              0 ****  ****    0 ROOT
