@<TRIPOS>MOLECULE
4E7
   37    38     1     0     0
SMALL
bcc


@<TRIPOS>ATOM
      1 N           -3.1630     1.2840     0.6860 n7         1 4E7      -0.817200
      2 CA          -1.7370     1.5920     0.7140 c5         1 4E7       0.025500
      3 CB          -1.0340     0.3650     0.0950 c5         1 4E7      -0.015400
      4 C           -1.3700     2.8790    -0.0480 c          1 4E7       0.920600
      5 OXT         -0.2350     3.3360     0.1730 o          1 4E7      -0.834300
      6 O           -2.2190     3.3340    -0.8440 o          1 4E7      -0.834300
      7 CAM          3.0670    -0.2820     1.2030 ca         1 4E7      -0.118000
      8 CAQ         -3.3500    -0.1150     0.3030 c5         1 4E7       0.162800
      9 CAR         -1.9850    -0.7750     0.4820 c5         1 4E7      -0.082700
     10 CAY          2.0720    -0.3090     2.1710 ca         1 4E7      -0.181000
     11 CAZ          2.7440    -0.0320    -0.1280 ca         1 4E7      -0.142600
     12 OAA          4.9910    -0.2480    -0.8270 o          1 4E7      -0.844800
     13 OAC          3.4610     0.2650    -2.3610 o          1 4E7      -0.844800
     14 CG           0.3960     0.1590     0.4950 ca         1 4E7      -0.062300
     15 CD1          0.7470    -0.0930     1.8200 ca         1 4E7      -0.143000
     16 CD2          1.4090     0.1900    -0.4580 ca         1 4E7      -0.076000
     17 C1          -1.7900    -2.0530    -0.3160 c3         1 4E7      -0.068400
     18 C2          -2.7540    -3.1700     0.0670 c3         1 4E7      -0.074400
     19 C3          -2.4900    -4.4610    -0.6950 c3         1 4E7      -0.086100
     20 H8          -3.5870     1.8960     0.0010 hn         1 4E7       0.373800
     21 HA          -1.3930     1.7040     1.7510 h1         1 4E7       0.052700
     22 HB          -1.0760     0.4650    -0.9990 hc         1 4E7       0.056700
     23 HAQ1        -4.1190    -0.6000     0.9110 h1         1 4E7       0.004200
     24 HAQ2        -3.6660    -0.2170    -0.7440 h1         1 4E7       0.004200
     25 HAR1        -1.8380    -1.0010     1.5470 hc         1 4E7       0.042700
     26 HD1         -0.0170    -0.1240     2.5880 ha         1 4E7       0.097000
     27 HD2          1.1510     0.3880    -1.4910 ha         1 4E7       0.146000
     28 H2          -1.8990    -1.8290    -1.3840 hc         1 4E7       0.045200
     29 H1          -0.7610    -2.4060    -0.1810 hc         1 4E7       0.045200
     30 H3          -2.6800    -3.3570     1.1430 hc         1 4E7       0.027200
     31 H4          -3.7840    -2.8490    -0.1150 hc         1 4E7       0.027200
     32 H5          -2.5910    -4.3120    -1.7720 hc         1 4E7       0.020033
     33 H6          -1.4810    -4.8320    -0.5080 hc         1 4E7       0.020033
     34 H7          -3.1890    -5.2470    -0.4060 hc         1 4E7       0.020033
     35 HAM          4.0980    -0.4580     1.4800 ha         1 4E7       0.125000
     36 CAV          3.8270    -0.0020    -1.1990 c          1 4E7       0.926200
     37 HAY          2.3290    -0.5040     3.2050 ha         1 4E7       0.083000
@<TRIPOS>BOND
     1     1     2 1   
     2     1     8 1   
     3     1    20 1   
     4     2     3 1   
     5     2     4 1   
     6     2    21 1   
     7     3     9 1   
     8     3    14 1   
     9     3    22 1   
    10     4     5 1   
    11     4     6 1   
    12     7    10 ar  
    13     7    11 ar  
    14     7    35 1   
    15     8     9 1   
    16     8    23 1   
    17     8    24 1   
    18     9    17 1   
    19     9    25 1   
    20    10    15 ar  
    21    10    37 1   
    22    11    16 ar  
    23    11    36 1   
    24    12    36 1   
    25    13    36 1   
    26    14    15 ar  
    27    14    16 ar  
    28    15    26 1   
    29    16    27 1   
    30    17    18 1   
    31    17    28 1   
    32    17    29 1   
    33    18    19 1   
    34    18    30 1   
    35    18    31 1   
    36    19    32 1   
    37    19    33 1   
    38    19    34 1   
@<TRIPOS>SUBSTRUCTURE
     1 4E7         1 TEMP              0 ****  ****    0 ROOT
