@<TRIPOS>MOLECULE
4E7
   37    38     1     0     0
SMALL
No Charge or Current Charge


@<TRIPOS>ATOM
      1 N           -3.0750     1.1900     1.1110 n7         1 4E7      -0.872400
      2 CA          -1.6760     1.6430     0.7320 c5         1 4E7       0.025500
      3 CB          -1.0330     0.4180    -0.0150 c5         1 4E7      -0.015400
      4 C           -1.5960     2.9070    -0.2280 c          1 4E7       0.710000
      5 OXT         -0.5780     3.5850    -0.2340 o          1 4E7      -0.729000
      6 O           -2.5920     3.2460    -0.8570 o          1 4E7      -0.729000
      7 CAM          3.0730    -0.2690     1.3090 ca         1 4E7      -0.100000
      8 CAQ         -3.3040    -0.0730     0.3800 c5         1 4E7       0.162800
      9 CAR         -1.9260    -0.7740     0.4460 c5         1 4E7      -0.082700
     10 CAY          2.0460    -0.1670     2.2600 ca         1 4E7      -0.163000
     11 CAZ          2.7880    -0.1490    -0.0700 ca         1 4E7      -0.142600
     12 OAA          5.0410    -0.4470    -0.7290 o          1 4E7      -0.739500
     13 OAC          3.6000    -0.1630    -2.2920 o          1 4E7      -0.739500
     14 CG           0.4050     0.1830     0.4820 ca         1 4E7      -0.062300
     15 CD1          0.7230     0.0560     1.8520 ca         1 4E7      -0.125000
     16 CD2          1.4470     0.0770    -0.4640 ca         1 4E7      -0.058000
     17 C1          -1.7840    -2.0510    -0.4210 c3         1 4E7      -0.068400
     18 C2          -2.6920    -3.2230     0.0150 c3         1 4E7      -0.074400
     19 C3          -2.4980    -4.4880    -0.8430 c3         1 4E7      -0.086100
     20 H8          -3.7520     1.8950     0.7830 hn         1 4E7       0.429000
     21 HA          -1.1240     1.9070     1.6440 h1         1 4E7       0.052700
     22 HB          -1.0890     0.5470    -1.1030 hc         1 4E7       0.056700
     23 HAQ1        -4.1050    -0.6630     0.8450 h1         1 4E7       0.004200
     24 HAQ2        -3.5910     0.1340    -0.6610 h1         1 4E7       0.004200
     25 HAR1        -1.7140    -1.0690     1.4800 hc         1 4E7       0.042700
     26 HD1         -0.0550     0.1280     2.6070 ha         1 4E7       0.079000
     27 HD2          1.2080     0.1700    -1.5210 ha         1 4E7       0.128000
     28 H2          -2.0000    -1.8100    -1.4700 hc         1 4E7       0.045200
     29 H1          -0.7410    -2.3900    -0.3930 hc         1 4E7       0.045200
     30 H3          -2.4870    -3.4700     1.0640 hc         1 4E7       0.027200
     31 H4          -3.7430    -2.9160    -0.0420 hc         1 4E7       0.027200
     32 H5          -2.7300    -4.2820    -1.8950 hc         1 4E7       0.020033
     33 H6          -1.4640    -4.8460    -0.7780 hc         1 4E7       0.020033
     34 H7          -3.1620    -5.2890    -0.4960 hc         1 4E7       0.020033
     35 HAM          4.0920    -0.4430     1.6490 ha         1 4E7       0.107000
     36 CAV          3.8940    -0.2610    -1.1090 c          1 4E7       0.715600
     37 HAY          2.2770    -0.2630     3.3180 ha         1 4E7       0.065000
@<TRIPOS>BOND
     1     1     2 1   
     2     1     8 1   
     3     1    20 1   
     4     2     3 1   
     5     2     4 1   
     6     2    21 1   
     7     3     9 1   
     8     3    14 1   
     9     3    22 1   
    10     4     5 1   
    11     4     6 1   
    12     7    10 ar  
    13     7    11 ar  
    14     7    35 1   
    15     8     9 1   
    16     8    23 1   
    17     8    24 1   
    18     9    17 1   
    19     9    25 1   
    20    10    15 ar  
    21    10    37 1   
    22    11    16 ar  
    23    11    36 1   
    24    12    36 1   
    25    13    36 1   
    26    14    15 ar  
    27    14    16 ar  
    28    15    26 1   
    29    16    27 1   
    30    17    18 1   
    31    17    28 1   
    32    17    29 1   
    33    18    19 1   
    34    18    30 1   
    35    18    31 1   
    36    19    32 1   
    37    19    33 1   
    38    19    34 1   
@<TRIPOS>SUBSTRUCTURE
     1 4E7         1 TEMP              0 ****  ****    0 ROOT
