@<TRIPOS>MOLECULE
4E8
   44    46     1     0     0
SMALL
bcc


@<TRIPOS>ATOM
      1 N01          6.1910    -2.8650    -0.0480 nc         1 4E8      -0.669000
      2 C02          5.2740    -1.9690     0.1660 cd         1 4E8       0.430400
      3 N03          5.7210    -0.7150    -0.1330 na         1 4E8      -0.241700
      4 C04          7.0210    -0.8440    -0.5660 cd         1 4E8      -0.223600
      5 C05          7.2870    -2.1740    -0.5040 cc         1 4E8       0.293200
      6 C1          -5.3180    -0.7320    -0.2710 ca         1 4E8      -0.050300
      7 N11          5.6010     1.5730    -0.4120 nb         1 4E8      -0.720000
      8 C12          4.9890     0.4720    -0.0250 ca         1 4E8       0.768500
      9 N13          3.7670     0.3590     0.4530 nb         1 4E8      -0.737000
     10 C14          3.0500     1.4770     0.5540 ca         1 4E8       0.488600
     11 C15          3.5920     2.6990     0.1700 ca         1 4E8      -0.381600
     12 C16          4.8890     2.6890    -0.3070 ca         1 4E8       0.467200
     13 C17          1.6540     1.3510     1.0720 c3         1 4E8      -0.139700
     14 C18          0.7650     0.5600     0.1130 c3         1 4E8       0.164800
     15 N19         -0.5990     0.5320     0.6000 n7         1 4E8      -0.810200
     16 C2          -6.0430     0.3140    -0.8380 ca         1 4E8      -0.168000
     17 C20         -1.4870    -0.2360    -0.2540 c3         1 4E8       0.159800
     18 C21         -2.9320    -0.1050     0.1970 c3         1 4E8      -0.076400
     19 C22         -3.8820    -0.9450    -0.6590 c3         1 4E8      -0.034100
     20 C3          -7.3470     0.5280    -0.4400 ca         1 4E8       0.136900
     21 C4          -7.9740    -0.2580     0.5070 ca         1 4E8      -0.171000
     22 C5          -7.2480    -1.3000     1.0690 ca         1 4E8      -0.101000
     23 C6          -5.9340    -1.5350     0.6860 ca         1 4E8      -0.143000
     24 F7          -8.0320     1.5410    -1.0000 f          1 4E8      -0.145900
     25 H02          4.2750    -2.1500     0.5280 h5         1 4E8       0.072100
     26 H04          7.6150     0.0010    -0.8660 h4         1 4E8       0.194000
     27 H05          8.2070    -2.6740    -0.7660 h4         1 4E8       0.041100
     28 H15          3.0290     3.6170     0.2470 ha         1 4E8       0.162000
     29 H16          5.3760     3.6060    -0.6160 h4         1 4E8       0.033100
     30 H17          1.6850     0.8440     2.0410 hc         1 4E8       0.069200
     31 H17A         1.2260     2.3420     1.2330 hc         1 4E8       0.069200
     32 H18          0.7670     1.0470    -0.8670 h1         1 4E8       0.040700
     33 H18A         1.1950    -0.4420    -0.0350 h1         1 4E8       0.040700
     34 HN19        -0.6090     0.1250     1.5280 hn         1 4E8       0.351800
     35 H2          -5.5930     0.9550    -1.5870 ha         1 4E8       0.148000
     36 H20         -1.3960     0.1510    -1.2740 h1         1 4E8       0.030200
     37 H20A        -1.2060    -1.3000    -0.3070 h1         1 4E8       0.030200
     38 H21         -3.0260    -0.4120     1.2440 hc         1 4E8       0.051700
     39 H21A        -3.2280     0.9460     0.1520 hc         1 4E8       0.051700
     40 H22         -3.6240    -2.0030    -0.5610 hc         1 4E8       0.049200
     41 H22A        -3.7450    -0.6840    -1.7120 hc         1 4E8       0.049200
     42 H4          -9.0000    -0.0660     0.7940 ha         1 4E8       0.150000
     43 H5          -7.7160    -1.9330     1.8100 ha         1 4E8       0.135000
     44 H6          -5.3820    -2.3530     1.1330 ha         1 4E8       0.134000
@<TRIPOS>BOND
     1     1     2 2   
     2     1     5 1   
     3     2     3 1   
     4     2    25 1   
     5     3     4 1   
     6     3     8 1   
     7     4     5 2   
     8     4    26 1   
     9     5    27 1   
    10     6    16 ar  
    11     6    19 1   
    12     6    23 ar  
    13     7     8 ar  
    14     7    12 ar  
    15     8     9 ar  
    16     9    10 ar  
    17    10    11 ar  
    18    10    13 1   
    19    11    12 ar  
    20    11    28 1   
    21    12    29 1   
    22    13    14 1   
    23    13    30 1   
    24    13    31 1   
    25    14    15 1   
    26    14    32 1   
    27    14    33 1   
    28    15    17 1   
    29    15    34 1   
    30    16    20 ar  
    31    16    35 1   
    32    17    18 1   
    33    17    36 1   
    34    17    37 1   
    35    18    19 1   
    36    18    38 1   
    37    18    39 1   
    38    19    40 1   
    39    19    41 1   
    40    20    21 ar  
    41    20    24 1   
    42    21    22 ar  
    43    21    42 1   
    44    22    23 ar  
    45    22    43 1   
    46    23    44 1   
@<TRIPOS>SUBSTRUCTURE
     1 4E8         1 TEMP              0 ****  ****    0 ROOT
