@<TRIPOS>MOLECULE
4E8
   44    46     1     0     0
SMALL
No Charge or Current Charge


@<TRIPOS>ATOM
      1 N01          7.5460    -2.2490    -0.4840 nc         1 4E8      -0.669000
      2 C02          6.3000    -1.8190    -0.6700 cd         1 4E8       0.430400
      3 N03          5.9540    -1.0020     0.3880 na         1 4E8      -0.191000
      4 C04          7.0810    -0.7330     1.1400 cd         1 4E8      -0.191000
      5 C05          8.0200    -1.5860     0.6230 cc         1 4E8       0.227900
      6 C1          -5.5960    -0.4840    -0.1560 ca         1 4E8      -0.050300
      7 N11          5.6540     1.0900    -0.7020 nb         1 4E8      -0.194000
      8 C12          5.1480     0.0840     0.0580 ca         1 4E8       0.242500
      9 N13          3.8720     0.0900     0.5160 nb         1 4E8      -0.211000
     10 C14          3.0710     1.1300     0.2110 ca         1 4E8       0.160300
     11 C15          3.5350     2.1960    -0.5700 ca         1 4E8      -0.233000
     12 C16          4.8600     2.1320    -1.0130 ca         1 4E8       0.138900
     13 C17          1.6480     1.0920     0.7390 c3         1 4E8      -0.139700
     14 C18          0.6780     0.4680    -0.2780 c3         1 4E8       0.164800
     15 N19         -0.6900     0.4740     0.2690 n7         1 4E8      -0.865400
     16 C2          -6.3860     0.6740    -0.2880 ca         1 4E8      -0.150000
     17 C20         -1.7210    -0.0830    -0.6240 c3         1 4E8       0.159800
     18 C21         -3.1060    -0.0060     0.0490 c3         1 4E8      -0.076400
     19 C22         -4.2370    -0.5690    -0.8380 c3         1 4E8      -0.034100
     20 C3          -7.6360     0.7500     0.3470 ca         1 4E8       0.172000
     21 C4          -8.1090    -0.3240     1.1170 ca         1 4E8      -0.153000
     22 C5          -7.3240    -1.4820     1.2550 ca         1 4E8      -0.083000
     23 C6          -6.0720    -1.5600     0.6200 ca         1 4E8      -0.125000
     24 F7          -8.3890     1.8640     0.2160 f          1 4E8      -0.181000
     25 H02          5.6290    -2.0480    -1.4910 h5         1 4E8       0.072100
     26 H04          7.1310    -0.0100     1.9470 h4         1 4E8       0.176000
     27 H05          9.0410    -1.7340     0.9510 h4         1 4E8       0.041100
     28 H15          2.8960     3.0380    -0.8240 ha         1 4E8       0.144000
     29 H16          5.2950     2.9220    -1.6240 h4         1 4E8       0.033100
     30 H17          1.6060     0.5240     1.6770 hc         1 4E8       0.069200
     31 H17A         1.3140     2.1090     0.9770 hc         1 4E8       0.069200
     32 H18          0.7210     1.0440    -1.2130 h1         1 4E8       0.040700
     33 H18A         1.0020    -0.5590    -0.5010 h1         1 4E8       0.040700
     34 HN19        -0.6880    -0.0760     1.1360 hn         1 4E8       0.407000
     35 H2          -6.0340     1.5150    -0.8790 ha         1 4E8       0.130000
     36 H20         -1.7510     0.4770    -1.5690 h1         1 4E8       0.030200
     37 H20A        -1.4950    -1.1320    -0.8620 h1         1 4E8       0.030200
     38 H21         -3.0830    -0.5630     0.9940 hc         1 4E8       0.051700
     39 H21A        -3.3300     1.0390     0.2950 hc         1 4E8       0.051700
     40 H22         -4.0090    -1.6110    -1.0950 hc         1 4E8       0.049200
     41 H22A        -4.2590    -0.0180    -1.7870 hc         1 4E8       0.049200
     42 H4          -9.0780    -0.2560     1.6050 ha         1 4E8       0.132000
     43 H5          -7.6850    -2.3170     1.8520 ha         1 4E8       0.117000
     44 H6          -5.4690    -2.4590     0.7330 ha         1 4E8       0.116000
@<TRIPOS>BOND
     1     1     2 2   
     2     1     5 1   
     3     2     3 1   
     4     2    25 1   
     5     3     4 1   
     6     3     8 1   
     7     4     5 2   
     8     4    26 1   
     9     5    27 1   
    10     6    16 ar  
    11     6    19 1   
    12     6    23 ar  
    13     7     8 ar  
    14     7    12 ar  
    15     8     9 ar  
    16     9    10 ar  
    17    10    11 ar  
    18    10    13 1   
    19    11    12 ar  
    20    11    28 1   
    21    12    29 1   
    22    13    14 1   
    23    13    30 1   
    24    13    31 1   
    25    14    15 1   
    26    14    32 1   
    27    14    33 1   
    28    15    17 1   
    29    15    34 1   
    30    16    20 ar  
    31    16    35 1   
    32    17    18 1   
    33    17    36 1   
    34    17    37 1   
    35    18    19 1   
    36    18    38 1   
    37    18    39 1   
    38    19    40 1   
    39    19    41 1   
    40    20    21 ar  
    41    20    24 1   
    42    21    22 ar  
    43    21    42 1   
    44    22    23 ar  
    45    22    43 1   
    46    23    44 1   
@<TRIPOS>SUBSTRUCTURE
     1 4E8         1 TEMP              0 ****  ****    0 ROOT
