@<TRIPOS>MOLECULE
4EA
   50    53     1     0     0
SMALL
abcg2


@<TRIPOS>ATOM
      1 C1           4.4920    -0.0150    -0.0260 ce         1 4EA      -0.132200
      2 C2           5.7630    -0.3760    -0.2450 cf         1 4EA      -0.158200
      3 C3           6.9390     0.3850     0.1720 ca         1 4EA      -0.012800
      4 C4           8.2100    -0.1370    -0.0670 ca         1 4EA      -0.156000
      5 C7           6.8810     1.6270     0.8100 ca         1 4EA      -0.156000
      6 C8           8.0580     2.2570     1.1700 ca         1 4EA       0.333900
      7 N1           9.2700     1.7540     0.9440 nb         1 4EA      -0.662000
      8 C9           9.3290     0.5760     0.3340 ca         1 4EA       0.333900
      9 C10         -8.1730     1.8280    -0.8530 ca         1 4EA      -0.090000
     10 C11         -8.0800     1.4930     0.4840 ca         1 4EA      -0.125000
     11 C12         -7.0110     0.6860     0.8730 ca         1 4EA      -0.046200
     12 C13         -6.0460     0.2190    -0.0490 ca         1 4EA      -0.101800
     13 C14         -6.1690     0.5760    -1.3970 ca         1 4EA      -0.070000
     14 C15         -7.2270     1.3730    -1.7870 ca         1 4EA      -0.135000
     15 N2          -6.6700     0.1960     2.0980 na         1 4EA      -0.220700
     16 C16         -5.5370    -0.5610     1.9840 cc         1 4EA      -0.148100
     17 C17         -5.1090    -0.5810     0.6860 cd         1 4EA      -0.153400
     18 C18          1.0620    -2.1730    -1.1240 ca         1 4EA       0.251900
     19 N3           2.2620    -2.6650    -1.4260 nb         1 4EA      -0.641000
     20 C19          3.3450    -1.9950    -1.0890 ca         1 4EA       0.311900
     21 C20          3.3030    -0.7650    -0.4180 ca         1 4EA      -0.074800
     22 C21          2.0500    -0.2540    -0.1070 ca         1 4EA      -0.106000
     23 C22          0.9030    -0.9590    -0.4590 ca         1 4EA       0.100100
     24 O1          -0.2740    -0.4110    -0.1260 os         1 4EA      -0.318100
     25 C24         -1.4620    -1.1480    -0.3620 c3         1 4EA       0.168600
     26 C23         -2.6400    -0.3610     0.1840 c3         1 4EA       0.162500
     27 C25         -3.8910    -1.2620     0.1570 c3         1 4EA      -0.040200
     28 N4          -2.7680     0.8980    -0.5240 n8         1 4EA      -0.982200
     29 H1           4.2850     0.9130     0.4970 ha         1 4EA       0.177000
     30 H2           5.9820    -1.3040    -0.7610 ha         1 4EA       0.179000
     31 H4           8.3320    -1.0930    -0.5600 ha         1 4EA       0.122000
     32 H7           5.9390     2.1110     1.0300 ha         1 4EA       0.122000
     33 H8           8.0200     3.2200     1.6670 h4         1 4EA       0.018600
     34 H9          10.3180     0.1720     0.1520 h4         1 4EA       0.018600
     35 H11         -8.8100     1.8440     1.2030 ha         1 4EA       0.115000
     36 H14         -5.4460     0.2310    -2.1270 ha         1 4EA       0.110000
     37 H15         -7.3330     1.6540    -2.8270 ha         1 4EA       0.113000
     38 HN2         -7.1770     0.3500     2.9530 hn         1 4EA       0.352000
     39 H16         -5.1120    -1.0420     2.8510 h4         1 4EA       0.213000
     40 H18          0.2110    -2.7740    -1.4250 h4         1 4EA       0.021100
     41 H19          4.2920    -2.4500    -1.3560 h4         1 4EA       0.020100
     42 H21          1.9570     0.6920     0.4150 ha         1 4EA       0.134000
     43 H241        -1.4070    -2.1230     0.1340 h1         1 4EA       0.034700
     44 H242        -1.5950    -1.3290    -1.4370 h1         1 4EA       0.034700
     45 H23         -2.4330    -0.1280     1.2340 h1         1 4EA       0.072700
     46 H251        -4.0710    -1.6000    -0.8700 hc         1 4EA       0.049200
     47 H252        -3.6870    -2.1620     0.7420 hc         1 4EA       0.049200
     48 HN41        -3.0520     0.7300    -1.4840 hn         1 4EA       0.400000
     49 HN42        -3.5120     1.4460    -0.1080 hn         1 4EA       0.400000
     50 H10         -8.9920     2.4520    -1.1870 ha         1 4EA       0.112000
@<TRIPOS>BOND
     1     1     2 2   
     2     1    21 1   
     3     1    29 1   
     4     2     3 1   
     5     2    30 1   
     6     3     4 ar  
     7     3     5 ar  
     8     4     8 ar  
     9     4    31 1   
    10     5     6 ar  
    11     5    32 1   
    12     6     7 ar  
    13     6    33 1   
    14     7     8 ar  
    15     8    34 1   
    16     9    10 ar  
    17     9    14 ar  
    18     9    50 1   
    19    10    11 ar  
    20    10    35 1   
    21    11    12 ar  
    22    11    15 1   
    23    12    13 ar  
    24    12    17 1   
    25    13    14 ar  
    26    13    36 1   
    27    14    37 1   
    28    15    16 1   
    29    15    38 1   
    30    16    17 2   
    31    16    39 1   
    32    17    27 1   
    33    18    19 ar  
    34    18    23 ar  
    35    18    40 1   
    36    19    20 ar  
    37    20    21 ar  
    38    20    41 1   
    39    21    22 ar  
    40    22    23 ar  
    41    22    42 1   
    42    23    24 1   
    43    24    25 1   
    44    25    26 1   
    45    25    43 1   
    46    25    44 1   
    47    26    27 1   
    48    26    28 1   
    49    26    45 1   
    50    27    46 1   
    51    27    47 1   
    52    28    48 1   
    53    28    49 1   
@<TRIPOS>SUBSTRUCTURE
     1 4EA         1 TEMP              0 ****  ****    0 ROOT
