@<TRIPOS>MOLECULE
4EA
   50    53     1     0     0
SMALL
No Charge or Current Charge


@<TRIPOS>ATOM
      1 C1           4.5770    -0.0400     0.0360 ce         1 4EA      -0.132200
      2 C2           5.8890    -0.3270    -0.2090 cf         1 4EA      -0.158200
      3 C3           7.0980     0.4370     0.1570 ca         1 4EA      -0.012800
      4 C4           8.3720    -0.0440    -0.1960 ca         1 4EA      -0.156000
      5 C7           7.0440     1.6560     0.8610 ca         1 4EA      -0.156000
      6 C8           8.2380     2.3280     1.1750 ca         1 4EA       0.333900
      7 N1           9.4600     1.8620     0.8330 nb         1 4EA      -0.662000
      8 C9           9.5160     0.6910     0.1570 ca         1 4EA       0.333900
      9 C10         -8.2670     1.9420    -0.8980 ca         1 4EA      -0.090000
     10 C11         -8.1630     1.5700     0.4610 ca         1 4EA      -0.125000
     11 C12         -7.1010     0.7340     0.8300 ca         1 4EA      -0.046200
     12 C13         -6.1880     0.2860    -0.0820 ca         1 4EA      -0.101800
     13 C14         -6.2610     0.6330    -1.4390 ca         1 4EA      -0.070000
     14 C15         -7.3200     1.4750    -1.8430 ca         1 4EA      -0.135000
     15 N2          -6.7830     0.2310     2.0790 na         1 4EA      -0.220700
     16 C16         -5.6270    -0.5740     1.9940 cc         1 4EA      -0.148100
     17 C17         -5.2540    -0.5380     0.6550 cd         1 4EA      -0.153400
     18 C18          1.1240    -2.2890    -1.0470 ca         1 4EA       0.251900
     19 N3           2.3420    -2.7700    -1.3970 nb         1 4EA      -0.641000
     20 C19          3.4320    -2.0440    -1.0460 ca         1 4EA       0.311900
     21 C20          3.3590    -0.8200    -0.3390 ca         1 4EA      -0.074800
     22 C21          2.0840    -0.3330     0.0180 ca         1 4EA      -0.106000
     23 C22          0.9450    -1.0730    -0.3390 ca         1 4EA       0.100100
     24 O1          -0.2970    -0.5820     0.0190 os         1 4EA      -0.318100
     25 C24         -1.5140    -1.2840    -0.3080 c3         1 4EA       0.168600
     26 C23         -2.7300    -0.4750     0.2360 c3         1 4EA       0.162500
     27 C25         -4.0590    -1.2550     0.0680 c3         1 4EA      -0.040200
     28 N4          -2.8560     0.8750    -0.3780 n8         1 4EA      -0.982200
     29 H1           4.3500     0.8790     0.5770 ha         1 4EA       0.177000
     30 H2           6.1100    -1.2470    -0.7500 ha         1 4EA       0.179000
     31 H4           8.4860    -0.9780    -0.7390 ha         1 4EA       0.122000
     32 H7           6.1010     2.0940     1.1700 ha         1 4EA       0.122000
     33 H8           8.2140     3.2720     1.7190 h4         1 4EA       0.018600
     34 H9          10.5090     0.3320    -0.1090 h4         1 4EA       0.018600
     35 H11         -8.8850     1.9220     1.1940 ha         1 4EA       0.115000
     36 H14         -5.5320     0.2680    -2.1570 ha         1 4EA       0.110000
     37 H15         -7.4100     1.7660    -2.8870 ha         1 4EA       0.113000
     38 HN2         -7.3090     0.4160     2.9280 hn         1 4EA       0.352000
     39 H16         -5.1860    -1.0790     2.8490 h4         1 4EA       0.213000
     40 H18          0.2770    -2.9020    -1.3480 h4         1 4EA       0.021100
     41 H19          4.3890    -2.4660    -1.3460 h4         1 4EA       0.020100
     42 H21          1.9740     0.6020     0.5610 ha         1 4EA       0.134000
     43 H241        -1.5110    -2.2800     0.1540 h1         1 4EA       0.034700
     44 H242        -1.6120    -1.4070    -1.3940 h1         1 4EA       0.034700
     45 H23         -2.5770    -0.3340     1.3170 h1         1 4EA       0.072700
     46 H251        -4.2270    -1.4660    -0.9950 hc         1 4EA       0.049200
     47 H252        -3.9540    -2.2340     0.5530 hc         1 4EA       0.049200
     48 HN41        -2.8690     0.7760    -1.3980 hn         1 4EA       0.400000
     49 HN42        -3.8000     1.2180    -0.1640 hn         1 4EA       0.400000
     50 H10         -9.0790     2.5900    -1.2200 ha         1 4EA       0.112000
@<TRIPOS>BOND
     1     1     2 2   
     2     1    21 1   
     3     1    29 1   
     4     2     3 1   
     5     2    30 1   
     6     3     4 ar  
     7     3     5 ar  
     8     4     8 ar  
     9     4    31 1   
    10     5     6 ar  
    11     5    32 1   
    12     6     7 ar  
    13     6    33 1   
    14     7     8 ar  
    15     8    34 1   
    16     9    10 ar  
    17     9    14 ar  
    18     9    50 1   
    19    10    11 ar  
    20    10    35 1   
    21    11    12 ar  
    22    11    15 1   
    23    12    13 ar  
    24    12    17 1   
    25    13    14 ar  
    26    13    36 1   
    27    14    37 1   
    28    15    16 1   
    29    15    38 1   
    30    16    17 2   
    31    16    39 1   
    32    17    27 1   
    33    18    19 ar  
    34    18    23 ar  
    35    18    40 1   
    36    19    20 ar  
    37    20    21 ar  
    38    20    41 1   
    39    21    22 ar  
    40    22    23 ar  
    41    22    42 1   
    42    23    24 1   
    43    24    25 1   
    44    25    26 1   
    45    25    43 1   
    46    25    44 1   
    47    26    27 1   
    48    26    28 1   
    49    26    45 1   
    50    27    46 1   
    51    27    47 1   
    52    28    48 1   
    53    28    49 1   
@<TRIPOS>SUBSTRUCTURE
     1 4EA         1 TEMP              0 ****  ****    0 ROOT
