@<TRIPOS>MOLECULE
4EB
   66    69     1     0     0
SMALL
No Charge or Current Charge


@<TRIPOS>ATOM
      1 C1         -11.1250     3.4980     1.5980 c3         1 4EB      -0.046800
      2 C2          -9.9760     2.8450     0.8450 ca         1 4EB      -0.070300
      3 C3          -9.2630     1.7800     1.4210 ca         1 4EB      -0.099000
      4 C4          -8.2000     1.1800     0.7280 ca         1 4EB      -0.114000
      5 C5          -7.8300     1.6400    -0.5540 ca         1 4EB      -0.097000
      6 S6          -6.4710     0.8780    -1.4590 ss         1 4EB      -0.159000
      7 C7          -5.4480     0.0090    -0.1850 c3         1 4EB       0.010600
      8 C8          -4.1530    -0.5350    -0.8140 c3         1 4EB       0.230800
      9 N9          -3.3300    -1.2370     0.1900 nu         1 4EB      -0.930200
     10 C10         -2.0980    -1.8620     0.0050 ca         1 4EB       0.461000
     11 C11         -1.5420    -1.9090    -1.2830 ca         1 4EB      -0.245000
     12 C12         -0.3120    -2.5370    -1.5170 ca         1 4EB       0.070000
     13 C13          0.3710    -3.1340    -0.4490 ca         1 4EB      -0.392500
     14 C14         -0.1720    -3.0980     0.8470 ca         1 4EB       0.137000
     15 C15         -1.4090    -2.4590     1.0800 ca         1 4EB      -0.315200
     16 N16         -1.9460    -2.4660     2.4640 no         1 4EB       0.711200
     17 O17         -2.6370    -1.5100     2.8400 o          1 4EB      -0.418000
     18 O18         -1.6130    -3.3980     3.2050 o          1 4EB      -0.418000
     19 S19          1.9510    -3.9320    -0.7320 sy         1 4EB       1.202300
     20 O20          2.0140    -4.3740    -2.1280 o          1 4EB      -0.526000
     21 O21          2.2170    -4.8520     0.3790 o          1 4EB      -0.526000
     22 N22          3.0740    -2.7030    -0.6140 ns         1 4EB      -0.582300
     23 C23          3.3550    -1.9360     0.4730 c          1 4EB       0.647700
     24 O24          2.7780    -2.0920     1.5390 o          1 4EB      -0.555100
     25 C25          4.4180    -0.8710     0.2920 ca         1 4EB      -0.160600
     26 C26          4.7500    -0.0320     1.3790 ca         1 4EB      -0.062500
     27 C27          5.7300     0.9660     1.2480 ca         1 4EB      -0.114000
     28 C28          6.4170     1.1660     0.0270 cp         1 4EB       0.002000
     29 C29          6.0810     0.3220    -1.0580 ca         1 4EB      -0.114000
     30 C30          5.1010    -0.6780    -0.9340 ca         1 4EB      -0.062500
     31 C31          7.4620     2.2300    -0.1110 cp         1 4EB      -0.063000
     32 C32          8.6090     2.0300    -0.9220 ca         1 4EB      -0.069000
     33 C33          9.5900     3.0300    -1.0510 ca         1 4EB      -0.153000
     34 C34          9.4400     4.2470    -0.3720 ca         1 4EB       0.181000
     35 F35         10.3820     5.2070    -0.4970 f          1 4EB      -0.175000
     36 C36          8.3170     4.4710     0.4350 ca         1 4EB      -0.153000
     37 C37          7.3360     3.4720     0.5660 ca         1 4EB      -0.069000
     38 C38         -8.5480     2.7100    -1.1390 ca         1 4EB      -0.055300
     39 C39         -8.1860     3.2360    -2.5250 c3         1 4EB      -0.053800
     40 C40         -9.6130     3.3050    -0.4330 ca         1 4EB      -0.099000
     41 H4         -10.7710     4.3520     2.1870 hc         1 4EB       0.044367
     42 H5         -11.8970     3.8630     0.9100 hc         1 4EB       0.044367
     43 H6         -11.6060     2.7930     2.2860 hc         1 4EB       0.044367
     44 H1          -9.5340     1.4140     2.4090 ha         1 4EB       0.115000
     45 H2          -7.6800     0.3520     1.1990 ha         1 4EB       0.112000
     46 H10         -5.2020     0.7170     0.6160 h1         1 4EB       0.079200
     47 H11         -6.0260    -0.8230     0.2340 h1         1 4EB       0.079200
     48 H12         -4.4170    -1.2210    -1.6310 h1         1 4EB       0.064700
     49 H13         -3.5880     0.3020    -1.2470 h1         1 4EB       0.064700
     50 H14         -3.5820    -1.1080     1.1740 hn         1 4EB       0.540000
     51 H16         -2.0570    -1.4570    -2.1240 ha         1 4EB       0.127000
     52 H15          0.0990    -2.5540    -2.5270 ha         1 4EB       0.133000
     53 H17          0.3720    -3.5570     1.6750 ha         1 4EB       0.181000
     54 H18          3.5430    -2.5430    -1.4860 hn         1 4EB       0.346500
     55 H22          4.2500    -0.1520     2.3380 ha         1 4EB       0.127000
     56 H21          5.9670     1.5830     2.1110 ha         1 4EB       0.122000
     57 H20          6.5760     0.4520    -2.0170 ha         1 4EB       0.122000
     58 H19          4.8870    -1.2910    -1.8060 ha         1 4EB       0.127000
     59 H26          8.7480     1.0860    -1.4450 ha         1 4EB       0.120500
     60 H25         10.4650     2.8610    -1.6730 ha         1 4EB       0.135000
     61 H24          8.2050     5.4190     0.9570 ha         1 4EB       0.135000
     62 H23          6.4640     3.6680     1.1860 ha         1 4EB       0.120500
     63 H7          -8.2830     2.4500    -3.2830 hc         1 4EB       0.049700
     64 H8          -8.8350     4.0650    -2.8300 hc         1 4EB       0.049700
     65 H9          -7.1530     3.6040    -2.5490 hc         1 4EB       0.049700
     66 H3         -10.1630     4.1300    -0.8800 ha         1 4EB       0.113000
@<TRIPOS>BOND
     1     1     2 1   
     2     1    41 1   
     3     1    42 1   
     4     1    43 1   
     5     2     3 ar  
     6     2    40 ar  
     7     3     4 ar  
     8     3    44 1   
     9     4     5 ar  
    10     4    45 1   
    11     5     6 1   
    12     5    38 ar  
    13     6     7 1   
    14     7     8 1   
    15     7    46 1   
    16     7    47 1   
    17     8     9 1   
    18     8    48 1   
    19     8    49 1   
    20     9    10 1   
    21     9    50 1   
    22    10    11 ar  
    23    10    15 ar  
    24    11    12 ar  
    25    11    51 1   
    26    12    13 ar  
    27    12    52 1   
    28    13    14 ar  
    29    13    19 1   
    30    14    15 ar  
    31    14    53 1   
    32    15    16 1   
    33    16    17 1   
    34    16    18 1   
    35    19    20 2   
    36    19    21 2   
    37    19    22 1   
    38    22    23 1   
    39    22    54 1   
    40    23    24 2   
    41    23    25 1   
    42    25    26 ar  
    43    25    30 ar  
    44    26    27 ar  
    45    26    55 1   
    46    27    28 ar  
    47    27    56 1   
    48    28    29 ar  
    49    28    31 1   
    50    29    30 ar  
    51    29    57 1   
    52    30    58 1   
    53    31    32 ar  
    54    31    37 ar  
    55    32    33 ar  
    56    32    59 1   
    57    33    34 ar  
    58    33    60 1   
    59    34    35 1   
    60    34    36 ar  
    61    36    37 ar  
    62    36    61 1   
    63    37    62 1   
    64    38    39 1   
    65    38    40 ar  
    66    39    63 1   
    67    39    64 1   
    68    39    65 1   
    69    40    66 1   
@<TRIPOS>SUBSTRUCTURE
     1 4EB         1 TEMP              0 ****  ****    0 ROOT
