@<TRIPOS>MOLECULE
4EB
   66    69     1     0     0
SMALL
bcc


@<TRIPOS>ATOM
      1 C1         -10.9800     3.4780     1.4700 c3         1 4EB      -0.046800
      2 C2          -9.7660     2.8720     0.8280 ca         1 4EB      -0.070300
      3 C3          -8.9480     1.9840     1.5140 ca         1 4EB      -0.117000
      4 C4          -7.8150     1.4450     0.9180 ca         1 4EB      -0.132000
      5 C5          -7.4750     1.7870    -0.3850 ca         1 4EB       0.029900
      6 S6          -6.0630     1.1490    -1.2290 ss         1 4EB      -0.238000
      7 C7          -5.2310     0.1510     0.0280 c3         1 4EB      -0.037300
      8 C8          -3.9620    -0.4000    -0.6040 c3         1 4EB       0.230800
      9 N9          -3.2620    -1.2080     0.3700 nu         1 4EB      -0.736600
     10 C10         -2.1160    -1.8430     0.1290 ca         1 4EB       0.322600
     11 C11         -1.5220    -1.7480    -1.1590 ca         1 4EB      -0.263000
     12 C12         -0.3480    -2.3720    -1.4670 ca         1 4EB       0.052000
     13 C13          0.3180    -3.1310    -0.4970 ca         1 4EB      -0.392500
     14 C14         -0.2100    -3.2600     0.7630 ca         1 4EB       0.119000
     15 C15         -1.4110    -2.6360     1.0840 ca         1 4EB      -0.315200
     16 N16         -1.8950    -2.8330     2.4210 no         1 4EB       0.331200
     17 O17         -2.9380    -2.2970     2.7510 o          1 4EB      -0.228000
     18 O18         -1.2540    -3.5260     3.1780 o          1 4EB      -0.228000
     19 S19          1.8350    -3.9040    -0.9020 sy         1 4EB       1.343900
     20 O20          1.8080    -4.3000    -2.2960 o          1 4EB      -0.596800
     21 O21          2.1770    -4.8640     0.1250 o          1 4EB      -0.596800
     22 N22          2.9630    -2.6580    -0.8710 ns         1 4EB      -0.649300
     23 C23          3.2640    -1.9520     0.2690 c          1 4EB       0.714700
     24 O24          2.7000    -2.1830     1.3170 o          1 4EB      -0.555100
     25 C25          4.2950    -0.8950     0.1250 ca         1 4EB      -0.160600
     26 C26          4.3400     0.1080     1.0910 ca         1 4EB      -0.080500
     27 C27          5.2810     1.1170     1.0120 ca         1 4EB      -0.132000
     28 C28          6.2150     1.1480    -0.0250 cp         1 4EB       0.002000
     29 C29          6.1750     0.1310    -0.9800 ca         1 4EB      -0.132000
     30 C30          5.2290    -0.8760    -0.9090 ca         1 4EB      -0.080500
     31 C31          7.2200     2.2240    -0.1100 cp         1 4EB      -0.063000
     32 C32          8.5130     1.9600    -0.5670 ca         1 4EB      -0.087000
     33 C33          9.4630     2.9660    -0.6530 ca         1 4EB      -0.171000
     34 C34          9.1060     4.2470    -0.2790 ca         1 4EB       0.145900
     35 F35         10.0200     5.2250    -0.3600 f          1 4EB      -0.139900
     36 C36          7.8380     4.5500     0.1780 ca         1 4EB      -0.171000
     37 C37          6.9020     3.5310     0.2610 ca         1 4EB      -0.087000
     38 C38         -8.2850     2.6810    -1.1040 ca         1 4EB      -0.055300
     39 C39         -7.9490     3.0670    -2.5140 c3         1 4EB      -0.053800
     40 C40         -9.4120     3.2000    -0.4800 ca         1 4EB      -0.117000
     41 H4         -10.7900     4.5070     1.7800 hc         1 4EB       0.044367
     42 H5         -11.8270     3.5000     0.7850 hc         1 4EB       0.044367
     43 H6         -11.2800     2.9210     2.3570 hc         1 4EB       0.044367
     44 H1          -9.1910     1.6990     2.5300 ha         1 4EB       0.133000
     45 H2          -7.2110     0.7550     1.4910 ha         1 4EB       0.130000
     46 H10         -4.9860     0.7700     0.8920 h1         1 4EB       0.079200
     47 H11         -5.8780    -0.6670     0.3510 h1         1 4EB       0.079200
     48 H12         -4.2190    -0.9990    -1.4820 h1         1 4EB       0.064700
     49 H13         -3.3290     0.4250    -0.9420 h1         1 4EB       0.064700
     50 H14         -3.6470    -1.2810     1.2990 hn         1 4EB       0.484800
     51 H16         -2.0110    -1.1670    -1.9260 ha         1 4EB       0.145000
     52 H15          0.0530    -2.2660    -2.4670 ha         1 4EB       0.151000
     53 H17          0.2980    -3.8500     1.5110 ha         1 4EB       0.199000
     54 H18          3.3040    -2.3680    -1.7790 hn         1 4EB       0.346500
     55 H22          3.6330     0.1040     1.9100 ha         1 4EB       0.145000
     56 H21          5.2990     1.8770     1.7820 ha         1 4EB       0.140000
     57 H20          6.8760     0.1290    -1.8050 ha         1 4EB       0.140000
     58 H19          5.2510    -1.6490    -1.6670 ha         1 4EB       0.145000
     59 H26          8.7980     0.9530    -0.8410 ha         1 4EB       0.138500
     60 H25         10.4650     2.7510    -0.9990 ha         1 4EB       0.153000
     61 H24          7.5800     5.5630     0.4560 ha         1 4EB       0.153000
     62 H23          5.9030     3.7720     0.6000 ha         1 4EB       0.138500
     63 H7          -7.9340     2.2000    -3.1780 hc         1 4EB       0.049700
     64 H8          -8.6750     3.7750    -2.9100 hc         1 4EB       0.049700
     65 H9          -6.9630     3.5340    -2.5780 hc         1 4EB       0.049700
     66 H3         -10.0370     3.8880    -1.0400 ha         1 4EB       0.131000
@<TRIPOS>BOND
     1     1     2 1   
     2     1    41 1   
     3     1    42 1   
     4     1    43 1   
     5     2     3 ar  
     6     2    40 ar  
     7     3     4 ar  
     8     3    44 1   
     9     4     5 ar  
    10     4    45 1   
    11     5     6 1   
    12     5    38 ar  
    13     6     7 1   
    14     7     8 1   
    15     7    46 1   
    16     7    47 1   
    17     8     9 1   
    18     8    48 1   
    19     8    49 1   
    20     9    10 1   
    21     9    50 1   
    22    10    11 ar  
    23    10    15 ar  
    24    11    12 ar  
    25    11    51 1   
    26    12    13 ar  
    27    12    52 1   
    28    13    14 ar  
    29    13    19 1   
    30    14    15 ar  
    31    14    53 1   
    32    15    16 1   
    33    16    17 1   
    34    16    18 1   
    35    19    20 2   
    36    19    21 2   
    37    19    22 1   
    38    22    23 1   
    39    22    54 1   
    40    23    24 2   
    41    23    25 1   
    42    25    26 ar  
    43    25    30 ar  
    44    26    27 ar  
    45    26    55 1   
    46    27    28 ar  
    47    27    56 1   
    48    28    29 ar  
    49    28    31 1   
    50    29    30 ar  
    51    29    57 1   
    52    30    58 1   
    53    31    32 ar  
    54    31    37 ar  
    55    32    33 ar  
    56    32    59 1   
    57    33    34 ar  
    58    33    60 1   
    59    34    35 1   
    60    34    36 ar  
    61    36    37 ar  
    62    36    61 1   
    63    37    62 1   
    64    38    39 1   
    65    38    40 ar  
    66    39    63 1   
    67    39    64 1   
    68    39    65 1   
    69    40    66 1   
@<TRIPOS>SUBSTRUCTURE
     1 4EB         1 TEMP              0 ****  ****    0 ROOT
