@<TRIPOS>MOLECULE
4ED
   33    35     1     0     0
SMALL
No Charge or Current Charge


@<TRIPOS>ATOM
      1 C10         -4.8180     1.2120     0.0450 ca         1 4ED      -0.061000
      2 C17          3.4870     1.2910     0.0680 ca         1 4ED      -0.074000
      3 C02          4.5880    -0.8910     0.0060 ca         1 4ED      -0.074300
      4 C03          3.3210    -1.5180    -0.0160 ca         1 4ED      -0.054000
      5 C04          2.1490    -0.7440     0.0040 ca         1 4ED       0.094400
      6 N05          0.8680    -1.2870    -0.0150 nc         1 4ED      -0.527100
      7 C06          0.0140    -0.2530     0.0130 cd         1 4ED       0.440500
      8 C07         -1.4240    -0.5210     0.0010 cf         1 4ED      -0.237600
      9 C08         -2.4500     0.3810     0.0260 ce         1 4ED      -0.129200
     10 C09         -3.9220     0.1260     0.0140 ca         1 4ED      -0.110800
     11 C11         -6.1970     0.9480     0.0340 ca         1 4ED      -0.165000
     12 C12         -6.6410    -0.3830    -0.0080 ca         1 4ED       0.342900
     13 N13         -5.7950    -1.4370    -0.0380 nb         1 4ED      -0.666000
     14 C14         -4.4650    -1.1800    -0.0270 ca         1 4ED       0.354900
     15 S15          0.6780     1.4040     0.0640 ss         1 4ED       0.016800
     16 C16          2.2500     0.6320     0.0450 ca         1 4ED      -0.178000
     17 C18          4.6720     0.5260     0.0480 ca         1 4ED      -0.060300
     18 C19          6.0210     1.2390     0.0730 c3         1 4ED      -0.049800
     19 H1          -4.4560     2.2380     0.0770 ha         1 4ED       0.120000
     20 H2           3.5260     2.3780     0.1000 ha         1 4ED       0.123000
     21 H3           6.4580    -1.5850     0.8780 hc         1 4ED       0.044033
     22 H4           5.6060    -2.8240    -0.0480 hc         1 4ED       0.044033
     23 H5           6.4630    -1.5320    -0.8950 hc         1 4ED       0.044033
     24 H6           3.2430    -2.6010    -0.0480 ha         1 4ED       0.131000
     25 H7          -1.6610    -1.5830    -0.0310 ha         1 4ED       0.202000
     26 H8          -2.1930     1.4410     0.0580 ha         1 4ED       0.177000
     27 H9          -6.9180     1.7600     0.0560 ha         1 4ED       0.126000
     28 H10         -7.7060    -0.6130    -0.0170 h4         1 4ED       0.021100
     29 H11         -3.8190    -2.0560    -0.0510 h4         1 4ED       0.022100
     30 H12          6.6100     0.9990    -0.8200 hc         1 4ED       0.044367
     31 H13          5.9050     2.3290     0.1050 hc         1 4ED       0.044367
     32 H14          6.6060     0.9470     0.9530 hc         1 4ED       0.044367
     33 C01          5.8460    -1.7550    -0.0160 c3         1 4ED      -0.047800
@<TRIPOS>BOND
     1     1    10 ar  
     2     1    11 ar  
     3     1    19 1   
     4     2    16 ar  
     5     2    17 ar  
     6     2    20 1   
     7     3     4 ar  
     8     3    17 ar  
     9     3    33 1   
    10     4     5 ar  
    11     4    24 1   
    12     5     6 1   
    13     5    16 ar  
    14     6     7 2   
    15     7     8 1   
    16     7    15 1   
    17     8     9 2   
    18     8    25 1   
    19     9    10 1   
    20     9    26 1   
    21    10    14 ar  
    22    11    12 ar  
    23    11    27 1   
    24    12    13 ar  
    25    12    28 1   
    26    13    14 ar  
    27    14    29 1   
    28    15    16 1   
    29    17    18 1   
    30    18    30 1   
    31    18    31 1   
    32    18    32 1   
    33    21    33 1   
    34    22    33 1   
    35    23    33 1   
@<TRIPOS>SUBSTRUCTURE
     1 4ED         1 TEMP              0 ****  ****    0 ROOT
