@<TRIPOS>MOLECULE
4ED
   33    35     1     0     0
SMALL
abcg2


@<TRIPOS>ATOM
      1 C10         -4.7240     1.1960    -0.0100 ca         1 4ED      -0.061000
      2 C17          3.4400     1.2860     0.0930 ca         1 4ED      -0.074000
      3 C02          4.5330    -0.8790    -0.0120 ca         1 4ED      -0.074300
      4 C03          3.3020    -1.5090    -0.0430 ca         1 4ED      -0.054000
      5 C04          2.1260    -0.7580    -0.0070 ca         1 4ED       0.094400
      6 N05          0.8540    -1.2630    -0.0300 nc         1 4ED      -0.527100
      7 C06         -0.0320    -0.3220     0.0140 cd         1 4ED       0.440500
      8 C07         -1.4520    -0.5920     0.0020 cf         1 4ED      -0.237600
      9 C08         -2.4080     0.3470     0.0350 ce         1 4ED      -0.129200
     10 C09         -3.8460     0.1120     0.0260 ca         1 4ED      -0.110800
     11 C11         -6.0890     0.9680    -0.0220 ca         1 4ED      -0.165000
     12 C12         -6.5410    -0.3410     0.0050 ca         1 4ED       0.342900
     13 N13         -5.7220    -1.3890     0.0440 nb         1 4ED      -0.666000
     14 C14         -4.4190    -1.1650     0.0550 ca         1 4ED       0.354900
     15 S15          0.6170     1.3080     0.0900 ss         1 4ED       0.016800
     16 C16          2.2120     0.6380     0.0590 ca         1 4ED      -0.178000
     17 C18          4.6030     0.5330     0.0600 ca         1 4ED      -0.060300
     18 C19          5.9360     1.2180     0.1080 c3         1 4ED      -0.049800
     19 H1          -4.3380     2.2080    -0.0310 ha         1 4ED       0.120000
     20 H2           3.4950     2.3660     0.1440 ha         1 4ED       0.123000
     21 H3           6.4260    -1.5090     0.8100 hc         1 4ED       0.044033
     22 H4           5.5710    -2.7580    -0.0890 hc         1 4ED       0.044033
     23 H5           6.3910    -1.4540    -0.9410 hc         1 4ED       0.044033
     24 H6           3.2400    -2.5900    -0.0950 ha         1 4ED       0.131000
     25 H7          -1.6950    -1.6470    -0.0390 ha         1 4ED       0.202000
     26 H8          -2.1220     1.3950     0.0700 ha         1 4ED       0.177000
     27 H9          -6.7930     1.7890    -0.0520 ha         1 4ED       0.126000
     28 H10         -7.6030    -0.5560    -0.0040 h4         1 4ED       0.021100
     29 H11         -3.7890    -2.0470     0.0920 h4         1 4ED       0.022100
     30 H12          6.5460     0.9780    -0.7650 hc         1 4ED       0.044367
     31 H13          5.8220     2.3000     0.1440 hc         1 4ED       0.044367
     32 H14          6.5100     0.9150     0.9860 hc         1 4ED       0.044367
     33 C01          5.7920    -1.6920    -0.0600 c3         1 4ED      -0.047800
@<TRIPOS>BOND
     1     1    10 ar  
     2     1    11 ar  
     3     1    19 1   
     4     2    16 ar  
     5     2    17 ar  
     6     2    20 1   
     7     3     4 ar  
     8     3    17 ar  
     9     3    33 1   
    10     4     5 ar  
    11     4    24 1   
    12     5     6 1   
    13     5    16 ar  
    14     6     7 2   
    15     7     8 1   
    16     7    15 1   
    17     8     9 2   
    18     8    25 1   
    19     9    10 1   
    20     9    26 1   
    21    10    14 ar  
    22    11    12 ar  
    23    11    27 1   
    24    12    13 ar  
    25    12    28 1   
    26    13    14 ar  
    27    14    29 1   
    28    15    16 1   
    29    17    18 1   
    30    18    30 1   
    31    18    31 1   
    32    18    32 1   
    33    21    33 1   
    34    22    33 1   
    35    23    33 1   
@<TRIPOS>SUBSTRUCTURE
     1 4ED         1 TEMP              0 ****  ****    0 ROOT
