@<TRIPOS>MOLECULE
4EE
   44    47     1     0     0
SMALL
bcc


@<TRIPOS>ATOM
      1 C10         -0.7130    -1.3840     0.3910 ce         1 4EE       0.454900
      2 N12          1.5360    -1.2490     0.3580 na         1 4EE      -0.130600
      3 C13          2.7320    -0.5960     0.4850 cc         1 4EE       0.509000
      4 C20          2.0630     1.4030     1.7730 ca         1 4EE      -0.056000
      5 C21          2.1580     2.7520     2.0730 ca         1 4EE      -0.177000
      6 C22          3.0440     3.5420     1.3560 ca         1 4EE      -0.072000
      7 C24          3.7320     1.6410     0.0430 ca         1 4EE       0.186100
      8 C26          5.3030     1.8270    -1.7260 c3         1 4EE       0.124700
      9 C01         -7.3510     2.6360    -0.9740 c3         1 4EE      -0.096100
     10 C02         -5.8850     2.2790    -0.9960 c3         1 4EE       0.141400
     11 C04         -4.4970     0.5330    -0.1500 ca         1 4EE       0.176100
     12 C05         -4.4120    -0.6810     0.5360 ca         1 4EE      -0.204000
     13 C06         -3.1940    -1.3070     0.6980 ca         1 4EE      -0.051000
     14 C07         -2.0170    -0.7440     0.1930 ca         1 4EE      -0.189900
     15 C08         -2.1150     0.4730    -0.4850 ca         1 4EE      -0.051000
     16 C09         -3.3310     1.1070    -0.6640 ca         1 4EE      -0.204000
     17 N11          0.3260    -0.6520     0.2350 n2         1 4EE      -0.487100
     18 N14          3.6970    -1.4640     0.3740 nd         1 4EE      -0.337000
     19 N15          3.1560    -2.6940     0.1630 nd         1 4EE      -0.311000
     20 C16          1.8660    -2.5520     0.1550 cc         1 4EE       0.433800
     21 S17          0.6270    -3.7160    -0.1570 ss         1 4EE      -0.203400
     22 C18         -0.6400    -2.8320     0.7990 c6         1 4EE      -0.108600
     23 C19          2.8420     0.8320     0.7700 ca         1 4EE      -0.169500
     24 C23          3.8260     2.9980     0.3470 ca         1 4EE      -0.229000
     25 H2           1.3860     0.7770     2.3380 ha         1 4EE       0.137000
     26 H3           1.5520     3.1790     2.8610 ha         1 4EE       0.136000
     27 H4           3.1340     4.5970     1.5790 ha         1 4EE       0.130000
     28 H5           6.1080     2.2690    -1.1340 h1         1 4EE       0.043033
     29 H6           5.7370     1.1510    -2.4580 h1         1 4EE       0.043033
     30 H7           4.7700     2.6230    -2.2510 h1         1 4EE       0.043033
     31 H8          -7.5060     3.5530    -1.5410 hc         1 4EE       0.049700
     32 H9          -7.9590     1.8540    -1.4290 hc         1 4EE       0.049700
     33 H10         -7.7060     2.8070     0.0430 hc         1 4EE       0.049700
     34 H11         -5.5370     2.1470    -2.0250 h1         1 4EE       0.037700
     35 H12         -5.2880     3.0760    -0.5420 h1         1 4EE       0.037700
     36 H13         -5.3110    -1.1290     0.9400 ha         1 4EE       0.145500
     37 H14         -3.1740    -2.2410     1.2440 ha         1 4EE       0.142500
     38 H15         -1.2240     0.9310    -0.8930 ha         1 4EE       0.142500
     39 H16         -3.3540     2.0400    -1.2090 ha         1 4EE       0.145500
     40 H18         -0.4220    -2.9170     1.8660 h1         1 4EE       0.098200
     41 H19         -1.5690    -3.3590     0.6000 h1         1 4EE       0.098200
     42 H20          4.5030     3.6440    -0.1940 ha         1 4EE       0.138000
     43 O25          4.4330     1.0440    -0.9300 os         1 4EE      -0.294900
     44 O03         -5.7170     1.0660    -0.2670 os         1 4EE      -0.321900
@<TRIPOS>BOND
     1     1    14 1   
     2     1    17 2   
     3     1    22 1   
     4     2     3 1   
     5     2    17 1   
     6     2    20 1   
     7     3    18 2   
     8     3    23 1   
     9     4     5 ar  
    10     4    23 ar  
    11     4    25 1   
    12     5     6 ar  
    13     5    26 1   
    14     6    24 ar  
    15     6    27 1   
    16     7    23 ar  
    17     7    24 ar  
    18     7    43 1   
    19     8    28 1   
    20     8    29 1   
    21     8    30 1   
    22     8    43 1   
    23     9    10 1   
    24     9    31 1   
    25     9    32 1   
    26     9    33 1   
    27    10    34 1   
    28    10    35 1   
    29    10    44 1   
    30    11    12 ar  
    31    11    16 ar  
    32    11    44 1   
    33    12    13 ar  
    34    12    36 1   
    35    13    14 ar  
    36    13    37 1   
    37    14    15 ar  
    38    15    16 ar  
    39    15    38 1   
    40    16    39 1   
    41    18    19 1   
    42    19    20 2   
    43    20    21 1   
    44    21    22 1   
    45    22    40 1   
    46    22    41 1   
    47    24    42 1   
@<TRIPOS>SUBSTRUCTURE
     1 4EE         1 TEMP              0 ****  ****    0 ROOT
