@<TRIPOS>MOLECULE
4EE
   44    47     1     0     0
SMALL
No Charge or Current Charge


@<TRIPOS>ATOM
      1 C10         -0.8000    -1.4410     0.6180 ce         1 4EE       0.454900
      2 N12          1.5640    -1.2630     0.5440 na         1 4EE      -0.130600
      3 C13          2.7370    -0.5430     0.4060 cc         1 4EE       0.509000
      4 C20          2.2390     1.4220     1.8590 ca         1 4EE      -0.038000
      5 C21          2.4320     2.7590     2.2380 ca         1 4EE      -0.159000
      6 C22          3.3170     3.5720     1.5200 ca         1 4EE      -0.054000
      7 C24          3.8270     1.6980     0.0320 ca         1 4EE       0.186100
      8 C26          5.4210     1.9340    -1.8490 c3         1 4EE       0.147900
      9 C01         -7.5000     2.6140    -1.1480 c3         1 4EE      -0.096100
     10 C02         -6.0030     2.2700    -1.1370 c3         1 4EE       0.164600
     11 C04         -4.6040     0.4940    -0.1510 ca         1 4EE       0.176100
     12 C05         -4.5470    -0.6690     0.6280 ca         1 4EE      -0.186000
     13 C06         -3.3200    -1.3070     0.8750 ca         1 4EE      -0.033000
     14 C07         -2.1230    -0.7950     0.3250 ca         1 4EE      -0.189900
     15 C08         -2.1830     0.3950    -0.4360 ca         1 4EE      -0.033000
     16 C09         -3.4120     1.0300    -0.6810 ca         1 4EE      -0.186000
     17 N11          0.2770    -0.7080     0.6370 n2         1 4EE      -0.487100
     18 N14          3.6810    -1.3860    -0.0290 nd         1 4EE      -0.337000
     19 N15          3.1120    -2.6360    -0.2450 nd         1 4EE      -0.311000
     20 C16          1.8480    -2.5300     0.1110 cc         1 4EE       0.433800
     21 S17          0.6150    -3.7590    -0.1290 ss         1 4EE      -0.251300
     22 C18         -0.7480    -2.9600     0.8410 c6         1 4EE      -0.060700
     23 C19          2.9190     0.8790     0.7450 ca         1 4EE      -0.169500
     24 C23          4.0140     3.0450     0.4220 ca         1 4EE      -0.211000
     25 H2           1.5640     0.8040     2.4480 ha         1 4EE       0.119000
     26 H3           1.8990     3.1620     3.0960 ha         1 4EE       0.118000
     27 H4           3.4670     4.6090     1.8150 ha         1 4EE       0.112000
     28 H5           6.2600     2.2770    -1.2310 h1         1 4EE       0.043033
     29 H6           5.8260     1.3170    -2.6600 h1         1 4EE       0.043033
     30 H7           4.9320     2.8080    -2.2990 h1         1 4EE       0.043033
     31 H8          -7.6760     3.5240    -1.7350 hc         1 4EE       0.049700
     32 H9          -8.0810     1.7990    -1.5950 hc         1 4EE       0.049700
     33 H10         -7.8640     2.7870    -0.1290 hc         1 4EE       0.049700
     34 H11         -5.6560     2.1130    -2.1670 h1         1 4EE       0.037700
     35 H12         -5.4400     3.1030    -0.6970 h1         1 4EE       0.037700
     36 H13         -5.4620    -1.0760     1.0510 ha         1 4EE       0.127500
     37 H14         -3.3100    -2.1940     1.5050 ha         1 4EE       0.124500
     38 H15         -1.2750     0.8280    -0.8520 ha         1 4EE       0.124500
     39 H16         -3.4190     1.9360    -1.2800 ha         1 4EE       0.127500
     40 H18         -0.5650    -3.1540     1.9070 h1         1 4EE       0.098200
     41 H19         -1.6930    -3.4390     0.5570 h1         1 4EE       0.098200
     42 H20          4.6930     3.7000    -0.1150 ha         1 4EE       0.120000
     43 O25          4.4860     1.1730    -1.0640 os         1 4EE      -0.318100
     44 O03         -5.8390     1.0740    -0.3560 os         1 4EE      -0.345100
@<TRIPOS>BOND
     1     1    14 1   
     2     1    17 2   
     3     1    22 1   
     4     2     3 1   
     5     2    17 1   
     6     2    20 1   
     7     3    18 2   
     8     3    23 1   
     9     4     5 ar  
    10     4    23 ar  
    11     4    25 1   
    12     5     6 ar  
    13     5    26 1   
    14     6    24 ar  
    15     6    27 1   
    16     7    23 ar  
    17     7    24 ar  
    18     7    43 1   
    19     8    28 1   
    20     8    29 1   
    21     8    30 1   
    22     8    43 1   
    23     9    10 1   
    24     9    31 1   
    25     9    32 1   
    26     9    33 1   
    27    10    34 1   
    28    10    35 1   
    29    10    44 1   
    30    11    12 ar  
    31    11    16 ar  
    32    11    44 1   
    33    12    13 ar  
    34    12    36 1   
    35    13    14 ar  
    36    13    37 1   
    37    14    15 ar  
    38    15    16 ar  
    39    15    38 1   
    40    16    39 1   
    41    18    19 1   
    42    19    20 2   
    43    20    21 1   
    44    21    22 1   
    45    22    40 1   
    46    22    41 1   
    47    24    42 1   
@<TRIPOS>SUBSTRUCTURE
     1 4EE         1 TEMP              0 ****  ****    0 ROOT
