@<TRIPOS>MOLECULE
4EF
   47    50     1     0     0
SMALL
bcc


@<TRIPOS>ATOM
      1 C1           2.5230    -1.6840     0.1340 ca         1 4EF      -0.378400
      2 C2           2.8780    -2.9750     0.5530 ca         1 4EF       0.480800
      3 C3           4.7430    -1.9630    -0.1110 cc         1 4EF      -0.108100
      4 C4           3.7350    -1.0640    -0.2870 cd         1 4EF      -0.009800
      5 C5          -3.1160     1.4890    -0.6700 ca         1 4EF      -0.043000
      6 C9          -0.7430     1.7350    -0.2800 ca         1 4EF       0.106600
      7 C10         -1.9900     2.2880    -0.5310 ca         1 4EF      -0.163000
      8 C8          -0.6070     0.3280    -0.2150 ca         1 4EF       0.151600
      9 C7          -1.7340    -0.4750    -0.3300 ca         1 4EF      -0.055000
     10 C6          -2.9720     0.1180    -0.5450 ca         1 4EF      -0.298500
     11 O2          -5.4620    -0.1970    -1.2760 o          1 4EF      -0.602800
     12 O1          -3.9990    -2.2380    -1.0740 o          1 4EF      -0.602800
     13 N1           4.2130    -3.1160     0.3990 na         1 4EF      -0.256100
     14 C12          1.1510    -1.3750     0.2340 ca         1 4EF       0.772200
     15 C13          0.7890    -3.4880     1.0470 ca         1 4EF       0.712900
     16 C14          0.8110     2.6580     1.3020 c6         1 4EF       0.141800
     17 C15          0.4750     3.7860    -0.7880 c6         1 4EF       0.141800
     18 O3           2.2560     4.5010     0.6860 os         1 4EF      -0.398600
     19 N2           0.6940    -0.1480    -0.1140 nu         1 4EF      -0.734300
     20 C16          2.1930     3.2750     1.3790 c6         1 4EF       0.127400
     21 C17          1.8810     4.3440    -0.6640 c6         1 4EF       0.127400
     22 N3          -4.8910    -1.1340     0.9600 n7         1 4EF      -0.803100
     23 S           -4.4020    -0.9250    -0.5980 sy         1 4EF       1.289200
     24 CL           3.9210     0.5180    -0.9260 cl         1 4EF      -0.082400
     25 N4           0.3110    -2.2960     0.6870 nb         1 4EF      -0.820000
     26 N5           2.0370    -3.9000     1.0160 nb         1 4EF      -0.745000
     27 N6           0.4190     2.5050    -0.1020 nh         1 4EF      -0.650000
     28 C11         -5.3200     0.0310     1.7200 c3         1 4EF       0.180100
     29 H1           5.7970    -1.8680    -0.3140 h4         1 4EF       0.183000
     30 H3          -4.0780     1.9430    -0.8610 ha         1 4EF       0.158000
     31 H4          -2.0990     3.3610    -0.6040 ha         1 4EF       0.139000
     32 H5          -1.6360    -1.5480    -0.2730 ha         1 4EF       0.187000
     33 H6           0.0520    -4.1960     1.4100 h5         1 4EF       0.052100
     34 H7           0.8270     1.6860     1.7990 h1         1 4EF       0.051450
     35 H8           0.0860     3.2880     1.8370 h1         1 4EF       0.051450
     36 H9          -0.2380     4.5110    -0.3720 h1         1 4EF       0.051450
     37 H10          0.2330     3.6460    -1.8430 h1         1 4EF       0.051450
     38 H11          1.3830     0.5510    -0.3650 hn         1 4EF       0.476800
     39 H12          2.4510     3.4730     2.4200 h1         1 4EF       0.055200
     40 H13          2.9300     2.5660     0.9770 h1         1 4EF       0.055200
     41 H14          2.5820     3.6790    -1.1860 h1         1 4EF       0.055200
     42 H15          1.9320     5.3270    -1.1340 h1         1 4EF       0.055200
     43 H16         -4.2690    -1.7520     1.4690 hn         1 4EF       0.426800
     44 H17         -4.5400     0.7880     1.8380 h1         1 4EF       0.050367
     45 H18         -6.1880     0.4860     1.2490 h1         1 4EF       0.050367
     46 H19         -5.6140    -0.3130     2.7080 h1         1 4EF       0.050367
     47 H2           4.7420    -3.9440     0.6280 hn         1 4EF       0.319700
@<TRIPOS>BOND
     1     1     2 ar  
     2     1     4 1   
     3     1    14 ar  
     4     2    13 1   
     5     2    26 ar  
     6     3     4 2   
     7     3    13 1   
     8     3    29 1   
     9     4    24 1   
    10     5     7 ar  
    11     5    10 ar  
    12     5    30 1   
    13     6     7 ar  
    14     6     8 ar  
    15     6    27 1   
    16     7    31 1   
    17     8     9 ar  
    18     8    19 1   
    19     9    10 ar  
    20     9    32 1   
    21    10    23 1   
    22    11    23 2   
    23    12    23 2   
    24    13    47 1   
    25    14    19 1   
    26    14    25 ar  
    27    15    25 ar  
    28    15    26 ar  
    29    15    33 1   
    30    16    20 1   
    31    16    27 1   
    32    16    34 1   
    33    16    35 1   
    34    17    21 1   
    35    17    27 1   
    36    17    36 1   
    37    17    37 1   
    38    18    20 1   
    39    18    21 1   
    40    19    38 1   
    41    20    39 1   
    42    20    40 1   
    43    21    41 1   
    44    21    42 1   
    45    22    23 1   
    46    22    28 1   
    47    22    43 1   
    48    28    44 1   
    49    28    45 1   
    50    28    46 1   
@<TRIPOS>SUBSTRUCTURE
     1 4EF         1 TEMP              0 ****  ****    0 ROOT
