@<TRIPOS>MOLECULE
4EF
   47    50     1     0     0
SMALL
No Charge or Current Charge


@<TRIPOS>ATOM
      1 C1           2.3710    -1.7050     0.2790 ca         1 4EF      -0.247800
      2 C2           2.8250    -2.9110     0.7550 ca         1 4EF       0.152500
      3 C3           4.6780    -1.7380     0.0220 cc         1 4EF      -0.158100
      4 C4           3.5370    -0.9860    -0.1750 cd         1 4EF       0.065800
      5 C5          -3.2580     1.6860    -0.5810 ca         1 4EF      -0.025000
      6 C9          -0.8390     1.8300    -0.2520 ca         1 4EF       0.245000
      7 C10         -2.0940     2.4510    -0.4060 ca         1 4EF      -0.145000
      8 C8          -0.7530     0.4060    -0.2630 ca         1 4EF       0.290000
      9 C7          -1.9250    -0.3530    -0.4600 ca         1 4EF      -0.037000
     10 C6          -3.1780     0.2810    -0.6140 ca         1 4EF      -0.298500
     11 O2          -5.6240     0.0610    -1.6530 o          1 4EF      -0.532000
     12 O1          -4.3230    -2.0940    -1.1340 o          1 4EF      -0.532000
     13 N1           4.2040    -2.9360     0.6050 na         1 4EF      -0.306400
     14 C12          1.0030    -1.4100     0.3090 ca         1 4EF       0.443900
     15 C13          0.6700    -3.4750     1.2640 ca         1 4EF       0.186900
     16 C14          0.8010     2.8870     1.3350 c6         1 4EF       0.141800
     17 C15          0.6030     3.7670    -1.0020 c6         1 4EF       0.141800
     18 O3           2.3650     4.6190     0.5080 os         1 4EF      -0.445000
     19 N2           0.5170    -0.1890    -0.1260 nu         1 4EF      -0.927900
     20 C16          2.2450     3.4710     1.3800 c6         1 4EF       0.150600
     21 C17          2.0610     4.3000    -0.8710 c6         1 4EF       0.150600
     22 N3          -5.3110    -0.7090     0.6970 n7         1 4EF      -0.858300
     23 S           -4.6710    -0.7020    -0.8440 sy         1 4EF       1.147600
     24 Cl           3.4890     0.5960    -0.8850 cl         1 4EF      -0.158000
     25 N4           0.1400    -2.3090     0.8190 nb         1 4EF      -0.294000
     26 N5           1.9780    -3.8260     1.2590 nb         1 4EF      -0.219000
     27 N6           0.3270     2.6310    -0.0640 nh         1 4EF      -0.788400
     28 C11         -4.3990    -0.9590     1.8310 c3         1 4EF       0.180100
     29 H1           5.7220    -1.5310    -0.1950 h4         1 4EF       0.233000
     30 H3          -4.2180     2.1880    -0.6910 ha         1 4EF       0.140000
     31 H4          -2.1690     3.5340    -0.3790 ha         1 4EF       0.121000
     32 H5          -1.8600    -1.4360    -0.5090 ha         1 4EF       0.169000
     33 H6          -0.0290    -4.2030     1.6720 h5         1 4EF       0.052100
     34 H7           0.7840     1.9550     1.9180 h1         1 4EF       0.051450
     35 H8           0.1210     3.5930     1.8330 h1         1 4EF       0.051450
     36 H9          -0.0900     4.5970    -0.8040 h1         1 4EF       0.051450
     37 H10          0.4410     3.4460    -2.0420 h1         1 4EF       0.051450
     38 H11          1.2510     0.5160    -0.2240 hn         1 4EF       0.532000
     39 H12          2.4920     3.7720     2.4080 h1         1 4EF       0.055200
     40 H13          2.9690     2.7040     1.0700 h1         1 4EF       0.055200
     41 H14          2.7710     3.5430    -1.2330 h1         1 4EF       0.055200
     42 H15          2.1840     5.2030    -1.4850 h1         1 4EF       0.055200
     43 H16         -5.9670    -1.4860     0.6200 hn         1 4EF       0.482000
     44 H17         -3.8370    -1.8930     1.6950 h1         1 4EF       0.050367
     45 H18         -3.6790    -0.1390     1.9540 h1         1 4EF       0.050367
     46 H19         -4.9650    -1.0410     2.7680 h1         1 4EF       0.050367
     47 H2           4.7850    -3.7220     0.8810 hn         1 4EF       0.370000
@<TRIPOS>BOND
     1     1     2 ar  
     2     1     4 1   
     3     1    14 ar  
     4     2    13 1   
     5     2    26 ar  
     6     3     4 2   
     7     3    13 1   
     8     3    29 1   
     9     4    24 1   
    10     5     7 ar  
    11     5    10 ar  
    12     5    30 1   
    13     6     7 ar  
    14     6     8 ar  
    15     6    27 1   
    16     7    31 1   
    17     8     9 ar  
    18     8    19 1   
    19     9    10 ar  
    20     9    32 1   
    21    10    23 1   
    22    11    23 2   
    23    12    23 2   
    24    13    47 1   
    25    14    19 1   
    26    14    25 ar  
    27    15    25 ar  
    28    15    26 ar  
    29    15    33 1   
    30    16    20 1   
    31    16    27 1   
    32    16    34 1   
    33    16    35 1   
    34    17    21 1   
    35    17    27 1   
    36    17    36 1   
    37    17    37 1   
    38    18    20 1   
    39    18    21 1   
    40    19    38 1   
    41    20    39 1   
    42    20    40 1   
    43    21    41 1   
    44    21    42 1   
    45    22    23 1   
    46    22    28 1   
    47    22    43 1   
    48    28    44 1   
    49    28    45 1   
    50    28    46 1   
@<TRIPOS>SUBSTRUCTURE
     1 4EF         1 TEMP              0 ****  ****    0 ROOT
