@<TRIPOS>MOLECULE
4EG
   23    23     1     0     0
SMALL
No Charge or Current Charge


@<TRIPOS>ATOM
      1 CAL          4.6320    -1.2310    -0.0320 c3         1 4EG       0.151900
      2 OAJ          3.1940    -1.3150    -0.0160 os         1 4EG      -0.437100
      3 CAI          2.4800    -0.1480     0.0520 c          1 4EG       0.589300
      4 OAK          2.9870     0.9630     0.1010 o          1 4EG      -0.469000
      5 CAH          1.0190    -0.4360     0.0590 ce         1 4EG      -0.235200
      6 CAG         -0.0210     0.4550     0.1250 cf         1 4EG       0.140100
      7 CAM          0.1890     1.8790     0.1790 ch         1 4EG       0.273700
      8 NAN          0.3130     3.0400     0.2230 n1         1 4EG      -0.421000
      9 CAE         -1.4580     0.0650     0.0940 ca         1 4EG      -0.076800
     10 CAD         -1.8660    -1.0600    -0.6590 ca         1 4EG      -0.083000
     11 CAC         -3.2160    -1.4490    -0.7000 ca         1 4EG      -0.112000
     12 CAB         -4.1810    -0.7240     0.0140 ca         1 4EG      -0.090000
     13 CAA         -3.7940     0.3930     0.7690 ca         1 4EG      -0.112000
     14 CAF         -2.4450     0.7860     0.8110 ca         1 4EG      -0.083000
     15 HAL          5.0720    -2.2340    -0.0890 h1         1 4EG       0.051367
     16 HAN          4.9810    -0.6570    -0.9010 h1         1 4EG       0.051367
     17 HAM          5.0070    -0.7470     0.8790 h1         1 4EG       0.051367
     18 HAH          0.7840    -1.4950     0.0180 ha         1 4EG       0.209000
     19 HAD         -1.1410    -1.6310    -1.2350 ha         1 4EG       0.121500
     20 HAC         -3.5130    -2.3140    -1.2900 ha         1 4EG       0.119000
     21 HAB         -5.2260    -1.0260    -0.0180 ha         1 4EG       0.118000
     22 HAA         -4.5410     0.9550     1.3270 ha         1 4EG       0.119000
     23 HAF         -2.1770     1.6470     1.4200 ha         1 4EG       0.121500
@<TRIPOS>BOND
     1     1     2 1   
     2     1    15 1   
     3     1    16 1   
     4     1    17 1   
     5     2     3 1   
     6     3     4 2   
     7     3     5 1   
     8     5     6 2   
     9     5    18 1   
    10     6     7 1   
    11     6     9 1   
    12     7     8 3   
    13     9    10 ar  
    14     9    14 ar  
    15    10    11 ar  
    16    10    19 1   
    17    11    12 ar  
    18    11    20 1   
    19    12    13 ar  
    20    12    21 1   
    21    13    14 ar  
    22    13    22 1   
    23    14    23 1   
@<TRIPOS>SUBSTRUCTURE
     1 4EG         1 TEMP              0 ****  ****    0 ROOT
