@<TRIPOS>MOLECULE
4EG
   23    23     1     0     0
SMALL
bcc


@<TRIPOS>ATOM
      1 CAL          4.5760    -1.1140    -0.0430 c3         1 4EG       0.128700
      2 OAJ          3.1570    -1.2800    -0.0560 os         1 4EG      -0.413900
      3 CAI          2.4150    -0.1920     0.0480 c          1 4EG       0.638300
      4 OAK          2.8520     0.9270     0.1490 o          1 4EG      -0.518000
      5 CAH          0.9810    -0.5400     0.0260 ce         1 4EG      -0.185200
      6 CAG         -0.0030     0.3670     0.1210 cf         1 4EG       0.140100
      7 CAM          0.2810     1.7650     0.2830 ch         1 4EG       0.184500
      8 NAN          0.3850     2.9040     0.4130 n1         1 4EG      -0.331800
      9 CAE         -1.4350     0.0170     0.0710 ca         1 4EG      -0.076800
     10 CAD         -1.8590    -1.1140    -0.6300 ca         1 4EG      -0.101000
     11 CAC         -3.2000    -1.4620    -0.6500 ca         1 4EG      -0.130000
     12 CAB         -4.1350    -0.6850     0.0220 ca         1 4EG      -0.108000
     13 CAA         -3.7230     0.4470     0.7090 ca         1 4EG      -0.130000
     14 CAF         -2.3830     0.8020     0.7300 ca         1 4EG      -0.101000
     15 HAL          4.9930    -2.1130    -0.1230 h1         1 4EG       0.051367
     16 HAN          4.9100    -0.5110    -0.8870 h1         1 4EG       0.051367
     17 HAM          4.9110    -0.6520     0.8860 h1         1 4EG       0.051367
     18 HAH          0.7260    -1.5880    -0.0620 ha         1 4EG       0.159000
     19 HAD         -1.1480    -1.7130    -1.1830 ha         1 4EG       0.139500
     20 HAC         -3.5150    -2.3380    -1.2020 ha         1 4EG       0.137000
     21 HAB         -5.1820    -0.9590     0.0020 ha         1 4EG       0.136000
     22 HAA         -4.4450     1.0600     1.2330 ha         1 4EG       0.137000
     23 HAF         -2.0810     1.6870     1.2740 ha         1 4EG       0.139500
@<TRIPOS>BOND
     1     1     2 1   
     2     1    15 1   
     3     1    16 1   
     4     1    17 1   
     5     2     3 1   
     6     3     4 2   
     7     3     5 1   
     8     5     6 2   
     9     5    18 1   
    10     6     7 1   
    11     6     9 1   
    12     7     8 3   
    13     9    10 ar  
    14     9    14 ar  
    15    10    11 ar  
    16    10    19 1   
    17    11    12 ar  
    18    11    20 1   
    19    12    13 ar  
    20    12    21 1   
    21    13    14 ar  
    22    13    22 1   
    23    14    23 1   
@<TRIPOS>SUBSTRUCTURE
     1 4EG         1 TEMP              0 ****  ****    0 ROOT
