@<TRIPOS>MOLECULE
4EH
   44    47     1     0     0
SMALL
No Charge or Current Charge


@<TRIPOS>ATOM
      1 O3           0.5810    -2.4970     1.8140 oh         1 4EH      -0.642000
      2 C3           0.6100    -2.0660     0.4490 c5         1 4EH       0.173300
      3 C4           1.2690    -0.6630     0.3010 c5         1 4EH      -0.066700
      4 C5           2.8120    -0.6910     0.2510 c3         1 4EH       0.063600
      5 S            3.5380     1.0040     0.0710 ss         1 4EH      -0.354300
      6 C2          -0.8190    -1.8520    -0.1730 c5         1 4EH       0.128800
      7 N1          -0.8260    -0.4360    -0.6330 n3         1 4EH      -0.694600
      8 C1           0.5780    -0.1550    -0.9870 c5         1 4EH       0.163800
      9 C10         -1.8340    -0.0880    -1.6520 c3         1 4EH       0.258000
     10 C9          -3.2390    -0.3380    -1.1740 cc         1 4EH      -0.263000
     11 C11         -4.0100     0.5160    -0.3190 ca         1 4EH       0.142800
     12 N3          -3.6560     1.6920     0.2290 nb         1 4EH      -0.147000
     13 C13         -4.6150     2.2610     1.0010 ca         1 4EH       0.135900
     14 C8          -4.0570    -1.4310    -1.4640 cd         1 4EH      -0.148100
     15 N7          -5.3080    -1.2800    -0.8130 na         1 4EH      -0.202700
     16 C12         -5.2270    -0.0720    -0.1300 ca         1 4EH      -0.222200
     17 C6          -6.1610     0.5870     0.6820 ca         1 4EH       0.388900
     18 N4          -5.8560     1.7660     1.2550 nb         1 4EH      -0.271000
     19 N6          -7.4060     0.1020     0.9330 nv         1 4EH      -1.077900
     20 C16          5.3120     0.7230     0.0370 ca         1 4EH       0.406300
     21 C14          6.2130     1.8250    -0.0720 ca         1 4EH       0.305900
     22 N5           7.5680     1.6690    -0.1030 nb         1 4EH      -0.622000
     23 C15          8.0020     0.3800    -0.0240 ca         1 4EH       0.270900
     24 C7           7.1070    -0.7190     0.0830 ca         1 4EH       0.300900
     25 N2           5.7530    -0.5610     0.1150 nb         1 4EH      -0.660000
     26 H1           0.1230    -3.3660     1.8290 ho         1 4EH       0.440000
     27 H2           1.1560    -2.8010    -0.1600 h1         1 4EH       0.029700
     28 H3           0.9920    -0.0220     1.1460 hc         1 4EH       0.098700
     29 H4           3.1920    -1.1430     1.1770 h1         1 4EH       0.077200
     30 H5           3.1390    -1.3130    -0.5920 h1         1 4EH       0.077200
     31 H6          -0.9670    -2.5420    -1.0160 h1         1 4EH       0.038200
     32 H7          -1.6230    -2.0370     0.5530 h1         1 4EH       0.038200
     33 H9           0.7570     0.9150    -1.1600 h1         1 4EH       0.041700
     34 H10          0.9010    -0.7130    -1.8780 h1         1 4EH       0.041700
     35 H11         -1.7400     0.9730    -1.9210 h1         1 4EH       0.036700
     36 H12         -1.6610    -0.6700    -2.5680 h1         1 4EH       0.036700
     37 H13         -4.3660     3.2150     1.4630 h5         1 4EH       0.045100
     38 H14         -3.8390    -2.3020    -2.0780 h4         1 4EH       0.213000
     39 H15         -6.0890    -1.9300    -0.8330 hn         1 4EH       0.349000
     40 H16         -7.7820    -0.6200     0.3250 hn         1 4EH       0.484000
     41 H17         -8.0850     0.7220     1.3700 hn         1 4EH       0.484000
     42 H18          5.8370     2.8450    -0.1340 h4         1 4EH       0.040100
     43 H19          9.0790     0.2210    -0.0460 h4         1 4EH       0.031100
     44 H20          7.4830    -1.7390     0.1450 h4         1 4EH       0.029100
@<TRIPOS>BOND
     1     1     2 1   
     2     1    26 1   
     3     2     3 1   
     4     2     6 1   
     5     2    27 1   
     6     3     4 1   
     7     3     8 1   
     8     3    28 1   
     9     4     5 1   
    10     4    29 1   
    11     4    30 1   
    12     5    20 1   
    13     6     7 1   
    14     6    31 1   
    15     6    32 1   
    16     7     8 1   
    17     7     9 1   
    18     8    33 1   
    19     8    34 1   
    20     9    10 1   
    21     9    35 1   
    22     9    36 1   
    23    10    11 1   
    24    10    14 2   
    25    11    12 ar  
    26    11    16 ar  
    27    12    13 ar  
    28    13    18 ar  
    29    13    37 1   
    30    14    15 1   
    31    14    38 1   
    32    15    16 1   
    33    15    39 1   
    34    16    17 ar  
    35    17    18 ar  
    36    17    19 1   
    37    19    40 1   
    38    19    41 1   
    39    20    21 ar  
    40    20    25 ar  
    41    21    22 ar  
    42    21    42 1   
    43    22    23 ar  
    44    23    24 ar  
    45    23    43 1   
    46    24    25 ar  
    47    24    44 1   
@<TRIPOS>SUBSTRUCTURE
     1 4EH         1 TEMP              0 ****  ****    0 ROOT
