@<TRIPOS>MOLECULE
4EH
   44    47     1     0     0
SMALL
abcg2


@<TRIPOS>ATOM
      1 O3           0.1160    -1.4080     2.3230 oh         1 4EH      -0.642000
      2 C3           0.4870    -1.5030     0.9660 c5         1 4EH       0.173300
      3 C4           1.2930    -0.2390     0.5900 c5         1 4EH      -0.066700
      4 C5           2.7630    -0.5460     0.3650 c3         1 4EH       0.063600
      5 S            3.6270     1.0020    -0.0260 ss         1 4EH      -0.354300
      6 C2          -0.6950    -1.4860    -0.0090 c5         1 4EH       0.128800
      7 N1          -0.8020    -0.1010    -0.4160 n3         1 4EH      -0.694600
      8 C1           0.5650     0.3170    -0.6330 c5         1 4EH       0.163800
      9 C10         -1.6770     0.1430    -1.5410 c3         1 4EH       0.258000
     10 C9          -3.0910    -0.2170    -1.2400 cc         1 4EH      -0.263000
     11 C11         -3.9510     0.3940    -0.2840 ca         1 4EH       0.142800
     12 N3          -3.7350     1.4370     0.5430 nb         1 4EH      -0.147000
     13 C13         -4.7630     1.7380     1.3000 ca         1 4EH       0.135900
     14 C8          -3.8250    -1.2290    -1.8070 cd         1 4EH      -0.148100
     15 N7          -5.0710    -1.2750    -1.2650 na         1 4EH      -0.202700
     16 C12         -5.1720    -0.2890    -0.3260 ca         1 4EH      -0.222200
     17 C6          -6.2020     0.1190     0.5380 ca         1 4EH       0.388900
     18 N4          -5.9620     1.1470     1.3470 nb         1 4EH      -0.271000
     19 N6          -7.3950    -0.5010     0.6130 nv         1 4EH      -1.077900
     20 C16          5.2860     0.4660    -0.1980 ca         1 4EH       0.406300
     21 C14          6.2690     1.4270    -0.4780 ca         1 4EH       0.305900
     22 N5           7.5340     1.0920    -0.6170 nb         1 4EH      -0.622000
     23 C15          7.8470    -0.1960    -0.4810 ca         1 4EH       0.270900
     24 C7           6.8770    -1.1400    -0.2050 ca         1 4EH       0.300900
     25 N2           5.5960    -0.8100    -0.0630 nb         1 4EH      -0.660000
     26 H1          -0.2960    -2.2390     2.5800 ho         1 4EH       0.440000
     27 H2           1.0860    -2.4080     0.7990 h1         1 4EH       0.029700
     28 H3           1.1940     0.4700     1.4170 hc         1 4EH       0.098700
     29 H4           3.2110    -0.9810     1.2580 h1         1 4EH       0.077200
     30 H5           2.8940    -1.2480    -0.4600 h1         1 4EH       0.077200
     31 H6          -0.4690    -2.1470    -0.8650 h1         1 4EH       0.038200
     32 H7          -1.6190    -1.8520     0.4450 h1         1 4EH       0.038200
     33 H9           0.6350     1.4040    -0.7170 h1         1 4EH       0.041700
     34 H10          0.9930    -0.1120    -1.5590 h1         1 4EH       0.041700
     35 H11         -1.6090     1.2060    -1.7910 h1         1 4EH       0.036700
     36 H12         -1.3460    -0.4090    -2.4390 h1         1 4EH       0.036700
     37 H13         -4.6370     2.5740     1.9820 h5         1 4EH       0.045100
     38 H14         -3.5370    -1.9310    -2.5730 h4         1 4EH       0.213000
     39 H15         -5.7830    -1.9330    -1.5320 hn         1 4EH       0.349000
     40 H16         -7.7020    -1.1160    -0.1200 hn         1 4EH       0.484000
     41 H17         -8.1220    -0.0600     1.1510 hn         1 4EH       0.484000
     42 H18          6.0090     2.4740    -0.5850 h4         1 4EH       0.040100
     43 H19          8.8860    -0.4770    -0.5940 h4         1 4EH       0.031100
     44 H20          7.1310    -2.1870    -0.0950 h4         1 4EH       0.029100
@<TRIPOS>BOND
     1     1     2 1   
     2     1    26 1   
     3     2     3 1   
     4     2     6 1   
     5     2    27 1   
     6     3     4 1   
     7     3     8 1   
     8     3    28 1   
     9     4     5 1   
    10     4    29 1   
    11     4    30 1   
    12     5    20 1   
    13     6     7 1   
    14     6    31 1   
    15     6    32 1   
    16     7     8 1   
    17     7     9 1   
    18     8    33 1   
    19     8    34 1   
    20     9    10 1   
    21     9    35 1   
    22     9    36 1   
    23    10    11 1   
    24    10    14 2   
    25    11    12 ar  
    26    11    16 ar  
    27    12    13 ar  
    28    13    18 ar  
    29    13    37 1   
    30    14    15 1   
    31    14    38 1   
    32    15    16 1   
    33    15    39 1   
    34    16    17 ar  
    35    17    18 ar  
    36    17    19 1   
    37    19    40 1   
    38    19    41 1   
    39    20    21 ar  
    40    20    25 ar  
    41    21    22 ar  
    42    21    42 1   
    43    22    23 ar  
    44    23    24 ar  
    45    23    43 1   
    46    24    25 ar  
    47    24    44 1   
@<TRIPOS>SUBSTRUCTURE
     1 4EH         1 TEMP              0 ****  ****    0 ROOT
