@<TRIPOS>MOLECULE
4EI
   22    21     1     0     0
SMALL
abcg2


@<TRIPOS>ATOM
      1 C5           8.1940   -19.9210    -4.8630 c3         1 4EI       0.109000
      2 C6           8.0590   -20.8590    -6.1030 c3         1 4EI       0.072000
      3 C7           7.3470   -22.2190    -5.9170 c3         1 4EI       0.277000
      4 C1           5.8660   -16.5220    -1.7040 c          1 4EI       0.727000
      5 C2           5.8990   -18.0040    -2.2090 c3         1 4EI      -0.013000
      6 C3           7.0220   -18.2340    -3.2500 c3         1 4EI       0.118000
      7 F73          7.8430   -22.8770    -4.8790 f          1 4EI      -0.087667
      8 F71          6.0440   -22.0500    -5.7360 f          1 4EI      -0.087667
      9 F72          7.5240   -22.9500    -7.0090 f          1 4EI      -0.087667
     10 F61          9.3180   -21.1240    -6.4940 f          1 4EI      -0.072000
     11 F62          7.4430   -20.2010    -7.0940 f          1 4EI      -0.072000
     12 F51          8.8130   -18.8200    -5.3210 f          1 4EI      -0.066000
     13 F52          9.0010   -20.5200    -3.9780 f          1 4EI      -0.066000
     14 C4           6.8820   -19.5050    -4.1360 c3         1 4EI       0.091000
     15 F41          5.9280   -19.2840    -5.0540 f          1 4EI      -0.075500
     16 F42          6.5050   -20.5430    -3.3690 f          1 4EI      -0.075500
     17 F31          8.2060   -18.2920    -2.6150 f          1 4EI      -0.078500
     18 F32          7.0420   -17.1730    -4.0830 f          1 4EI      -0.078500
     19 F21          4.7210   -18.3760    -2.7630 f          1 4EI      -0.114000
     20 F22          6.1200   -18.8400    -1.1620 f          1 4EI      -0.114000
     21 O1           6.8720   -16.2100    -1.0580 o          1 4EI      -0.652500
     22 O2           4.8600   -15.8780    -2.0070 o          1 4EI      -0.652500
@<TRIPOS>BOND
     1     1     2 1   
     2     1    12 1   
     3     1    13 1   
     4     1    14 1   
     5     2     3 1   
     6     2    10 1   
     7     2    11 1   
     8     3     7 1   
     9     3     8 1   
    10     3     9 1   
    11     4     5 1   
    12     4    21 1   
    13     4    22 1   
    14     5     6 1   
    15     5    19 1   
    16     5    20 1   
    17     6    14 1   
    18     6    17 1   
    19     6    18 1   
    20    14    15 1   
    21    14    16 1   
@<TRIPOS>SUBSTRUCTURE
     1 4EI         1 TEMP              0 ****  ****    0 ROOT
