@<TRIPOS>MOLECULE
4EI
   22    21     1     0     0
SMALL
No Charge or Current Charge


@<TRIPOS>ATOM
      1 C5           8.2010   -19.8810    -4.9750 c3         1 4EI       0.109000
      2 C6           8.0460   -20.8950    -6.1750 c3         1 4EI       0.072000
      3 C7           7.4260   -22.2950    -5.8490 c3         1 4EI       0.277000
      4 C1           5.9360   -16.5560    -1.5840 c          1 4EI       0.727000
      5 C2           5.8310   -17.9700    -2.2430 c3         1 4EI      -0.013000
      6 C3           7.0070   -18.2100    -3.2540 c3         1 4EI       0.118000
      7 F73          7.9870   -22.8560    -4.7530 f          1 4EI      -0.087667
      8 F71          6.0950   -22.2090    -5.6220 f          1 4EI      -0.087667
      9 F72          7.5950   -23.1530    -6.8830 f          1 4EI      -0.087667
     10 F61          9.2750   -21.0950    -6.7150 f          1 4EI      -0.072000
     11 F62          7.3060   -20.3200    -7.1550 f          1 4EI      -0.072000
     12 F51          8.7910   -18.7580    -5.4540 f          1 4EI      -0.066000
     13 F52          9.0880   -20.3980    -4.0880 f          1 4EI      -0.066000
     14 C4           6.8910   -19.4810    -4.1860 c3         1 4EI       0.091000
     15 F41          5.8800   -19.2820    -5.0670 f          1 4EI      -0.075500
     16 F42          6.4990   -20.5370    -3.4320 f          1 4EI      -0.075500
     17 F31          8.1670   -18.2650    -2.5550 f          1 4EI      -0.078500
     18 F32          7.1220   -17.1060    -4.0340 f          1 4EI      -0.078500
     19 F21          4.6390   -18.1220    -2.8790 f          1 4EI      -0.114000
     20 F22          5.8500   -18.9370    -1.2870 f          1 4EI      -0.114000
     21 O1           6.6520   -16.4230    -0.5990 o          1 4EI      -0.652500
     22 O2           5.2250   -15.6540    -2.0130 o          1 4EI      -0.652500
@<TRIPOS>BOND
     1     1     2 1   
     2     1    12 1   
     3     1    13 1   
     4     1    14 1   
     5     2     3 1   
     6     2    10 1   
     7     2    11 1   
     8     3     7 1   
     9     3     8 1   
    10     3     9 1   
    11     4     5 1   
    12     4    21 1   
    13     4    22 1   
    14     5     6 1   
    15     5    19 1   
    16     5    20 1   
    17     6    14 1   
    18     6    17 1   
    19     6    18 1   
    20    14    15 1   
    21    14    16 1   
@<TRIPOS>SUBSTRUCTURE
     1 4EI         1 TEMP              0 ****  ****    0 ROOT
