@<TRIPOS>MOLECULE
4EJ
   40    43     1     0     0
SMALL
abcg2


@<TRIPOS>ATOM
      1 C1           3.8100     2.5080    -0.0070 ca         1 4EJ      -0.024000
      2 C2           2.4340     2.2970    -0.0400 ca         1 4EJ      -0.072000
      3 C3           1.9220     1.0130    -0.0140 ca         1 4EJ      -0.107000
      4 C11         -1.3160    -3.2450     0.0340 cc         1 4EJ      -0.201000
      5 C12         -1.2200    -1.8130    -0.0260 cc         1 4EJ       0.585900
      6 C13         -2.3370     0.3490    -0.2900 c3         1 4EJ       0.269100
      7 C14         -3.7190     0.9180    -0.1240 ca         1 4EJ      -0.120300
      8 C15         -4.3000     0.9970     1.1400 ca         1 4EJ      -0.092500
      9 C16         -5.5770     1.5160     1.2970 ca         1 4EJ      -0.112500
     10 C17         -6.2910     1.9590     0.1890 ca         1 4EJ      -0.097000
     11 C18         -5.7210     1.8800    -1.0730 ca         1 4EJ      -0.112500
     12 C19         -4.4410     1.3600    -1.2270 ca         1 4EJ      -0.092500
     13 C            4.3340     3.8320    -0.0350 cg         1 4EJ       0.327000
     14 C6           4.6740     1.4120     0.0530 ca         1 4EJ      -0.072000
     15 C5           4.1580     0.1360     0.0800 ca         1 4EJ      -0.107000
     16 C4           2.7730    -0.0980     0.0470 ca         1 4EJ       0.024200
     17 C7           2.3180    -1.4750     0.0820 cc         1 4EJ      -0.093300
     18 N4           1.0220    -1.9250     0.0540 na         1 4EJ       0.289900
     19 C9           1.0540    -3.2910     0.1120 cd         1 4EJ      -0.153000
     20 N1           2.3000    -3.7400     0.1750 nc         1 4EJ      -0.260600
     21 C8           3.0680    -2.6430     0.1570 cd         1 4EJ      -0.037400
     22 N3          -0.0800    -1.1710    -0.0330 nd         1 4EJ      -0.592800
     23 C10         -0.1790    -3.9740     0.0970 cd         1 4EJ       0.010000
     24 H            1.7570     3.1390    -0.0870 ha         1 4EJ       0.124000
     25 H1           0.8530     0.8780    -0.0420 ha         1 4EJ       0.130500
     26 H6          -2.2890    -3.7160     0.0270 ha         1 4EJ       0.134000
     27 H9          -1.9480     0.5850    -1.2870 h1         1 4EJ       0.058700
     28 H8          -1.6560     0.8090     0.4290 h1         1 4EJ       0.058700
     29 H10         -3.7470     0.6580     2.0080 ha         1 4EJ       0.117000
     30 H11         -6.0140     1.5790     2.2850 ha         1 4EJ       0.117000
     31 H12         -7.2850     2.3670     0.3140 ha         1 4EJ       0.116000
     32 H13         -6.2710     2.2210    -1.9410 ha         1 4EJ       0.117000
     33 H14         -4.0010     1.2970    -2.2150 ha         1 4EJ       0.117000
     34 H3           5.7450     1.5610     0.0790 ha         1 4EJ       0.124000
     35 H2           4.8470    -0.6960     0.1260 ha         1 4EJ       0.130500
     36 H4           4.1460    -2.7120     0.1990 h4         1 4EJ       0.229000
     37 H5          -0.1910    -5.0540     0.1390 ha         1 4EJ       0.149000
     38 H7          -3.2010    -1.5700    -0.3060 hn         1 4EJ       0.495000
     39 N2          -2.3560    -1.0800    -0.0600 nu         1 4EJ      -0.918100
     40 N            4.7600     4.9030    -0.0600 n1         1 4EJ      -0.457000
@<TRIPOS>BOND
     1     1     2 ar  
     2     1    13 1   
     3     1    14 ar  
     4     2     3 ar  
     5     2    24 1   
     6     3    16 ar  
     7     3    25 1   
     8     4     5 1   
     9     4    23 2   
    10     4    26 1   
    11     5    22 2   
    12     5    39 1   
    13     6     7 1   
    14     6    27 1   
    15     6    28 1   
    16     6    39 1   
    17     7     8 ar  
    18     7    12 ar  
    19     8     9 ar  
    20     8    29 1   
    21     9    10 ar  
    22     9    30 1   
    23    10    11 ar  
    24    10    31 1   
    25    11    12 ar  
    26    11    32 1   
    27    12    33 1   
    28    13    40 3   
    29    14    15 ar  
    30    14    34 1   
    31    15    16 ar  
    32    15    35 1   
    33    16    17 1   
    34    17    18 1   
    35    17    21 2   
    36    18    19 1   
    37    18    22 1   
    38    19    20 2   
    39    19    23 1   
    40    20    21 1   
    41    21    36 1   
    42    23    37 1   
    43    38    39 1   
@<TRIPOS>SUBSTRUCTURE
     1 4EJ         1 TEMP              0 ****  ****    0 ROOT
