@<TRIPOS>MOLECULE
4EJ
   40    43     1     0     0
SMALL
No Charge or Current Charge


@<TRIPOS>ATOM
      1 C1           4.3500     2.4670     0.0250 ca         1 4EJ      -0.024000
      2 C2           3.0270     2.3530     0.4890 ca         1 4EJ      -0.072000
      3 C3           2.3820     1.1030     0.4920 ca         1 4EJ      -0.107000
      4 C11         -1.3880    -3.0570     0.0990 cc         1 4EJ      -0.201000
      5 C12         -1.2200    -1.6370     0.0390 cc         1 4EJ       0.585900
      6 C13         -2.5240     0.5370    -0.0570 c3         1 4EJ       0.269100
      7 C14         -3.9990     0.9080    -0.0730 ca         1 4EJ      -0.120300
      8 C15         -4.6900     1.1300     1.1360 ca         1 4EJ      -0.092500
      9 C16         -6.0530     1.4720     1.1210 ca         1 4EJ      -0.112500
     10 C17         -6.7360     1.5930    -0.1010 ca         1 4EJ      -0.097000
     11 C18         -6.0530     1.3700    -1.3090 ca         1 4EJ      -0.112500
     12 C19         -4.6900     1.0280    -1.2960 ca         1 4EJ      -0.092500
     13 C            5.0090     3.7440     0.0200 cg         1 4EJ       0.327000
     14 C6           5.0220     1.3190    -0.4340 ca         1 4EJ      -0.072000
     15 C5           4.3750     0.0700    -0.4280 ca         1 4EJ      -0.107000
     16 C4           3.0470    -0.0530     0.0320 ca         1 4EJ       0.024200
     17 C7           2.3820    -1.3620     0.0350 cc         1 4EJ      -0.093300
     18 N4           1.0470    -1.7340     0.0590 na         1 4EJ       0.289900
     19 C9           0.9460    -3.1200     0.1050 cd         1 4EJ      -0.153000
     20 N1           2.1710    -3.5980     0.1210 nc         1 4EJ      -0.260600
     21 C8           3.0200    -2.5870     0.0840 cd         1 4EJ      -0.037400
     22 N3          -0.0930    -0.9380     0.0120 nd         1 4EJ      -0.592800
     23 C10         -0.2740    -3.8500     0.1310 cd         1 4EJ       0.010000
     24 H            2.4950     3.2320     0.8500 ha         1 4EJ       0.124000
     25 H1           1.3650     1.0410     0.8680 ha         1 4EJ       0.130500
     26 H6          -2.3810    -3.4890     0.1140 ha         1 4EJ       0.134000
     27 H9          -2.0370     0.9300    -0.9610 h1         1 4EJ       0.058700
     28 H8          -2.0370     1.0050     0.8110 h1         1 4EJ       0.058700
     29 H10         -4.1690     1.0370     2.0870 ha         1 4EJ       0.117000
     30 H11         -6.5810     1.6430     2.0570 ha         1 4EJ       0.117000
     31 H12         -7.7910     1.8580    -0.1120 ha         1 4EJ       0.116000
     32 H13         -6.5810     1.4620    -2.2560 ha         1 4EJ       0.117000
     33 H14         -4.1690     0.8560    -2.2350 ha         1 4EJ       0.117000
     34 H3           6.0460     1.3920    -0.7970 ha         1 4EJ       0.124000
     35 H2           4.9120    -0.7990    -0.7980 ha         1 4EJ       0.130500
     36 H4           4.0860    -2.7980     0.1080 h4         1 4EJ       0.229000
     37 H5          -0.3180    -4.9350     0.1710 ha         1 4EJ       0.149000
     38 H7          -3.2340    -1.4780     0.0260 hn         1 4EJ       0.495000
     39 N2          -2.3830    -0.9230     0.0050 nu         1 4EJ      -0.918100
     40 N            5.5540     4.7770     0.0170 n1         1 4EJ      -0.457000
@<TRIPOS>BOND
     1     1     2 ar  
     2     1    13 1   
     3     1    14 ar  
     4     2     3 ar  
     5     2    24 1   
     6     3    16 ar  
     7     3    25 1   
     8     4     5 1   
     9     4    23 2   
    10     4    26 1   
    11     5    22 2   
    12     5    39 1   
    13     6     7 1   
    14     6    27 1   
    15     6    28 1   
    16     6    39 1   
    17     7     8 ar  
    18     7    12 ar  
    19     8     9 ar  
    20     8    29 1   
    21     9    10 ar  
    22     9    30 1   
    23    10    11 ar  
    24    10    31 1   
    25    11    12 ar  
    26    11    32 1   
    27    12    33 1   
    28    13    40 3   
    29    14    15 ar  
    30    14    34 1   
    31    15    16 ar  
    32    15    35 1   
    33    16    17 1   
    34    17    18 1   
    35    17    21 2   
    36    18    19 1   
    37    18    22 1   
    38    19    20 2   
    39    19    23 1   
    40    20    21 1   
    41    21    36 1   
    42    23    37 1   
    43    38    39 1   
@<TRIPOS>SUBSTRUCTURE
     1 4EJ         1 TEMP              0 ****  ****    0 ROOT
