@<TRIPOS>MOLECULE
4EK
   45    49     1     0     0
SMALL
abcg2


@<TRIPOS>ATOM
      1 C2           1.6850    -2.2140    -1.8720 ca         1 4EK       0.173000
      2 C3           1.2080    -3.4020    -1.3520 ca         1 4EK      -0.148000
      3 C11          3.4330     1.9790     0.8470 c5         1 4EK       0.229800
      4 C13          1.0680     1.7860     0.1370 cc         1 4EK       0.595900
      5 C16         -1.2390     2.9050    -0.7850 cd         1 4EK      -0.153000
      6 C17         -0.0430     3.6300    -0.9400 cd         1 4EK       0.007000
      7 C18          1.1100     3.0760    -0.4940 cc         1 4EK      -0.204000
      8 C20         -3.2080     2.1280    -0.7430 cc         1 4EK      -0.009400
      9 C21         -2.4180     1.1430    -0.1690 cd         1 4EK      -0.211900
     10 C22         -2.8290    -0.1630     0.3270 ca         1 4EK       0.445800
     11 C23         -1.9420    -1.1940     0.6390 ca         1 4EK      -0.142000
     12 C24         -2.4580    -2.4050     1.0730 ca         1 4EK      -0.078000
     13 C25         -3.8300    -2.5600     1.1860 ca         1 4EK      -0.170000
     14 C26         -4.6300    -1.4780     0.8450 ca         1 4EK       0.341900
     15 F1           1.8370    -2.1070    -3.2040 f          1 4EK      -0.179000
     16 C4           1.0570    -3.4910     0.0250 ca         1 4EK      -0.087000
     17 C5           1.3670    -2.4130     0.8420 ca         1 4EK      -0.127000
     18 C6           1.8420    -1.2250     0.2930 ca         1 4EK      -0.055300
     19 C7           2.0110    -1.1300    -1.0830 ca         1 4EK      -0.132000
     20 C8           2.2270    -0.0960     1.2140 c5         1 4EK       0.284800
     21 C9           3.6810    -0.2300     1.6910 c5         1 4EK      -0.089400
     22 C10          4.0960     1.2040     1.9780 c5         1 4EK      -0.097400
     23 N12          2.2100     1.2210     0.5960 nh         1 4EK      -0.797300
     24 N14         -0.0420     1.1010     0.2780 nd         1 4EK      -0.582800
     25 N15         -1.1530     1.6660    -0.2030 na         1 4EK       0.287900
     26 N19         -2.4870     3.1960    -1.1200 nc         1 4EK      -0.269600
     27 N27         -4.1540    -0.3160     0.4310 nb         1 4EK      -0.675000
     28 H1           0.9590    -4.2300    -2.0020 ha         1 4EK       0.134000
     29 H2           3.2140     3.0070     1.1340 h1         1 4EK       0.051200
     30 H3           4.0690     2.0050    -0.0430 h1         1 4EK       0.051200
     31 H4          -0.0640     4.5980    -1.4200 ha         1 4EK       0.147000
     32 H5           2.0500     3.5910    -0.6240 ha         1 4EK       0.132000
     33 H6          -4.2740     2.0760    -0.8970 h4         1 4EK       0.243000
     34 H7          -0.8770    -1.0580     0.5370 ha         1 4EK       0.149000
     35 H8          -1.7860    -3.2180     1.3170 ha         1 4EK       0.113000
     36 H9          -4.2720    -3.4870     1.5230 ha         1 4EK       0.122000
     37 H10         -5.7100    -1.5560     0.9140 h4         1 4EK       0.017100
     38 H11          0.6860    -4.4100     0.4600 ha         1 4EK       0.117000
     39 H12          1.2290    -2.4930     1.9130 ha         1 4EK       0.116000
     40 H13          2.3840    -0.2210    -1.5380 ha         1 4EK       0.138000
     41 H14          1.5510    -0.1120     2.0780 h1         1 4EK       0.067700
     42 H15          3.7570    -0.8950     2.5500 hc         1 4EK       0.061700
     43 H16          4.2960    -0.6470     0.8900 hc         1 4EK       0.061700
     44 H17          5.1750     1.3440     1.9950 hc         1 4EK       0.059200
     45 H18          3.6960     1.5330     2.9400 hc         1 4EK       0.059200
@<TRIPOS>BOND
     1     1     2 ar  
     2     1    15 1   
     3     1    19 ar  
     4     2    16 ar  
     5     2    28 1   
     6     3    22 1   
     7     3    23 1   
     8     3    29 1   
     9     3    30 1   
    10     4     7 1   
    11     4    23 1   
    12     4    24 2   
    13     5     6 1   
    14     5    25 1   
    15     5    26 2   
    16     6     7 2   
    17     6    31 1   
    18     7    32 1   
    19     8     9 2   
    20     8    26 1   
    21     8    33 1   
    22     9    10 1   
    23     9    25 1   
    24    10    11 ar  
    25    10    27 ar  
    26    11    12 ar  
    27    11    34 1   
    28    12    13 ar  
    29    12    35 1   
    30    13    14 ar  
    31    13    36 1   
    32    14    27 ar  
    33    14    37 1   
    34    16    17 ar  
    35    16    38 1   
    36    17    18 ar  
    37    17    39 1   
    38    18    19 ar  
    39    18    20 1   
    40    19    40 1   
    41    20    21 1   
    42    20    23 1   
    43    20    41 1   
    44    21    22 1   
    45    21    42 1   
    46    21    43 1   
    47    22    44 1   
    48    22    45 1   
    49    24    25 1   
@<TRIPOS>SUBSTRUCTURE
     1 4EK         1 TEMP              0 ****  ****    0 ROOT
