@<TRIPOS>MOLECULE
4EK
   45    49     1     0     0
SMALL
No Charge or Current Charge


@<TRIPOS>ATOM
      1 C2           2.7030    -2.4030    -2.1290 ca         1 4EK       0.173000
      2 C3           1.9950    -3.5660    -1.7920 ca         1 4EK      -0.148000
      3 C11          3.1080     2.0580     1.1050 c5         1 4EK       0.229800
      4 C13          0.9860     1.6800    -0.0500 cc         1 4EK       0.595900
      5 C16         -1.2400     2.8500    -0.9620 cd         1 4EK      -0.153000
      6 C17         -0.0390     3.5550    -1.2370 cd         1 4EK       0.007000
      7 C18          1.0910     2.9270    -0.7760 cc         1 4EK      -0.204000
      8 C20         -3.2700     2.2010    -0.7480 cc         1 4EK      -0.009400
      9 C21         -2.5300     1.1650    -0.2050 cd         1 4EK      -0.211900
     10 C22         -3.0290    -0.0380     0.4800 ca         1 4EK       0.445800
     11 C23         -2.2520    -1.2060     0.6390 ca         1 4EK      -0.142000
     12 C24         -2.7740    -2.2960     1.3520 ca         1 4EK      -0.078000
     13 C25         -4.0610    -2.1720     1.8950 ca         1 4EK      -0.170000
     14 C26         -4.7700    -0.9740     1.7050 ca         1 4EK       0.341900
     15 F1           3.3310    -2.3220    -3.3230 f          1 4EK      -0.179000
     16 C4           1.3430    -3.6470    -0.5510 ca         1 4EK      -0.087000
     17 C5           1.4020    -2.5650     0.3460 ca         1 4EK      -0.127000
     18 C6           2.1110    -1.3910     0.0150 ca         1 4EK      -0.055300
     19 C7           2.7640    -1.3230    -1.2360 ca         1 4EK      -0.132000
     20 C8           2.1500    -0.2210     1.0040 c5         1 4EK       0.284800
     21 C9           3.5430    -0.2460     1.6850 c5         1 4EK      -0.089400
     22 C10          3.5800     1.1800     2.2970 c5         1 4EK      -0.097400
     23 N12          2.1890     1.1340     0.3850 nh         1 4EK      -0.797300
     24 N14         -0.1400     1.0070     0.2000 nd         1 4EK      -0.582800
     25 N15         -1.2440     1.6310    -0.3320 na         1 4EK       0.287900
     26 N19         -2.4760     3.2180    -1.2380 nc         1 4EK      -0.269600
     27 N27         -4.2690     0.0770     1.0170 nb         1 4EK      -0.675000
     28 H1           1.9540    -4.3980    -2.4900 ha         1 4EK       0.134000
     29 H2           2.6190     2.9780     1.4570 h1         1 4EK       0.051200
     30 H3           3.9540     2.3410     0.4620 h1         1 4EK       0.051200
     31 H4          -0.0160     4.5080    -1.7590 ha         1 4EK       0.147000
     32 H5           2.0650     3.3670    -0.9500 ha         1 4EK       0.132000
     33 H6          -4.3520     2.2760    -0.8180 h4         1 4EK       0.243000
     34 H7          -1.2660    -1.2780     0.1940 ha         1 4EK       0.149000
     35 H8          -2.1970    -3.2100     1.4790 ha         1 4EK       0.113000
     36 H9          -4.5100    -2.9870     2.4560 ha         1 4EK       0.122000
     37 H10         -5.7700    -0.8510     2.1190 h4         1 4EK       0.017100
     38 H11          0.7910    -4.5460    -0.2830 ha         1 4EK       0.117000
     39 H12          0.8920    -2.6390     1.3040 ha         1 4EK       0.116000
     40 H13          3.3150    -0.4290    -1.5170 ha         1 4EK       0.138000
     41 H14          1.3580    -0.3110     1.7630 h1         1 4EK       0.067700
     42 H15          3.6230    -1.0360     2.4400 hc         1 4EK       0.061700
     43 H16          4.3560    -0.3910     0.9640 hc         1 4EK       0.061700
     44 H17          4.5750     1.4650     2.6550 hc         1 4EK       0.059200
     45 H18          2.8900     1.2650     3.1450 hc         1 4EK       0.059200
@<TRIPOS>BOND
     1     1     2 ar  
     2     1    15 1   
     3     1    19 ar  
     4     2    16 ar  
     5     2    28 1   
     6     3    22 1   
     7     3    23 1   
     8     3    29 1   
     9     3    30 1   
    10     4     7 1   
    11     4    23 1   
    12     4    24 2   
    13     5     6 1   
    14     5    25 1   
    15     5    26 2   
    16     6     7 2   
    17     6    31 1   
    18     7    32 1   
    19     8     9 2   
    20     8    26 1   
    21     8    33 1   
    22     9    10 1   
    23     9    25 1   
    24    10    11 ar  
    25    10    27 ar  
    26    11    12 ar  
    27    11    34 1   
    28    12    13 ar  
    29    12    35 1   
    30    13    14 ar  
    31    13    36 1   
    32    14    27 ar  
    33    14    37 1   
    34    16    17 ar  
    35    16    38 1   
    36    17    18 ar  
    37    17    39 1   
    38    18    19 ar  
    39    18    20 1   
    40    19    40 1   
    41    20    21 1   
    42    20    23 1   
    43    20    41 1   
    44    21    22 1   
    45    21    42 1   
    46    21    43 1   
    47    22    44 1   
    48    22    45 1   
    49    24    25 1   
@<TRIPOS>SUBSTRUCTURE
     1 4EK         1 TEMP              0 ****  ****    0 ROOT
