@<TRIPOS>MOLECULE
4EL
   55    58     1     0     0
SMALL
abcg2


@<TRIPOS>ATOM
      1 C10         -3.3400    -0.3160    -0.4880 ca         1 4EL      -0.102000
      2 C15          1.4620     0.7740     1.4280 ca         1 4EL      -0.234000
      3 C17          3.3480     1.7020     0.2740 ca         1 4EL      -0.406500
      4 C24          6.2710     0.2400     0.0730 cc         1 4EL       0.689300
      5 C01         -8.5600     4.2610    -0.6040 c3         1 4EL       0.163900
      6 C03         -7.6380     2.2290     0.1740 ca         1 4EL       0.563300
      7 C04         -7.6940     1.1410     1.0560 ca         1 4EL      -0.189000
      8 C05         -6.7170     0.1790     0.9500 ca         1 4EL      -0.040000
      9 C06         -5.7060     0.2990    -0.0130 cp         1 4EL      -0.087000
     10 C07         -5.7690     1.4160    -0.8320 ca         1 4EL       0.369900
     11 N08         -6.7050     2.3580    -0.7430 nb         1 4EL      -0.764000
     12 C09         -4.6380    -0.7050    -0.1630 cp         1 4EL      -0.077000
     13 C11         -2.3320    -1.2590    -0.6530 ca         1 4EL      -0.166300
     14 C12         -0.9350    -0.8070    -0.9800 c3         1 4EL       0.273100
     15 N13         -0.3110    -0.2440     0.1980 nu         1 4EL      -0.940200
     16 C14          0.8900     0.3700     0.2010 ca         1 4EL       0.410000
     17 C16          2.6670     1.4300     1.4640 ca         1 4EL       0.052000
     18 C18          2.8100     1.3010    -0.9440 ca         1 4EL       0.052000
     19 C19          1.5990     0.6420    -0.9840 ca         1 4EL      -0.234000
     20 O21          5.2390     2.9990    -0.9810 o          1 4EL      -0.536000
     21 O22          4.8940     3.4460     1.4660 o          1 4EL      -0.536000
     22 N23          6.0090     1.3670     0.7990 nu         1 4EL      -0.858000
     23 N25          5.8220     0.0150    -1.1160 nd         1 4EL      -0.382000
     24 N26          6.2380    -1.1740    -1.6100 nd         1 4EL      -0.290000
     25 C27          6.9920    -1.8430    -0.8120 cc         1 4EL       0.414700
     26 S29          7.2690    -1.0270     0.7010 ss         1 4EL      -0.338800
     27 C30         -2.6220    -2.6040    -0.4730 ca         1 4EL      -0.057000
     28 C31         -3.9080    -3.0210    -0.1410 ca         1 4EL      -0.140600
     29 C32         -4.9030    -2.0640     0.0090 ca         1 4EL      -0.056000
     30 C33         -4.2200    -4.5030     0.0460 c          1 4EL       0.713600
     31 O34         -5.3980    -4.7930     0.3310 o          1 4EL      -0.712500
     32 O35         -3.2690    -5.2930    -0.1010 o          1 4EL      -0.712500
     33 H1          -3.1050     0.7360    -0.6060 ha         1 4EL       0.095000
     34 H2           0.9380     0.5730     2.3530 ha         1 4EL       0.120000
     35 H3           8.6720    -3.1390    -1.0570 hc         1 4EL       0.061033
     36 H4           7.2390    -3.9230    -0.3980 hc         1 4EL       0.061033
     37 H5           7.2920    -3.4820    -2.1100 hc         1 4EL       0.061033
     38 H6          -7.6470     4.8480    -0.4970 h1         1 4EL       0.039367
     39 H7          -8.6520     3.9430    -1.6430 h1         1 4EL       0.039367
     40 H8          -9.4150     4.8790    -0.3400 h1         1 4EL       0.039367
     41 H9          -8.4770     1.0710     1.7980 ha         1 4EL       0.129000
     42 H10         -6.7260    -0.6640     1.6290 ha         1 4EL       0.133000
     43 H11         -5.0360     1.5570    -1.6190 h4         1 4EL       0.018100
     44 H12         -0.3510    -1.6450    -1.3750 h1         1 4EL       0.047200
     45 H13         -0.9730    -0.0490    -1.7670 h1         1 4EL       0.047200
     46 H14         -0.6900    -0.5210     1.0890 hn         1 4EL       0.501000
     47 H15          3.0740     1.7290     2.4210 ha         1 4EL       0.128500
     48 H16          3.3330     1.4970    -1.8690 ha         1 4EL       0.128500
     49 H17          1.2080     0.3400    -1.9450 ha         1 4EL       0.120000
     50 H18          6.2850     1.4020     1.7720 hn         1 4EL       0.517000
     51 H19         -1.8390    -3.3430    -0.5910 ha         1 4EL       0.133000
     52 H20         -5.9080    -2.3930     0.2450 ha         1 4EL       0.135000
     53 O02         -8.5880     3.1580     0.2900 os         1 4EL      -0.469300
     54 C28          7.5840    -3.1720    -1.1090 c3         1 4EL      -0.127400
     55 S20          4.8780     2.5300     0.3400 sy         1 4EL       1.199600
@<TRIPOS>BOND
     1     1    12 ar  
     2     1    13 ar  
     3     1    33 1   
     4     2    16 ar  
     5     2    17 ar  
     6     2    34 1   
     7     3    17 ar  
     8     3    18 ar  
     9     3    55 1   
    10     4    22 1   
    11     4    23 2   
    12     4    26 1   
    13     5    38 1   
    14     5    39 1   
    15     5    40 1   
    16     5    53 1   
    17     6     7 ar  
    18     6    11 ar  
    19     6    53 1   
    20     7     8 ar  
    21     7    41 1   
    22     8     9 ar  
    23     8    42 1   
    24     9    10 ar  
    25     9    12 1   
    26    10    11 ar  
    27    10    43 1   
    28    12    29 ar  
    29    13    14 1   
    30    13    27 ar  
    31    14    15 1   
    32    14    44 1   
    33    14    45 1   
    34    15    16 1   
    35    15    46 1   
    36    16    19 ar  
    37    17    47 1   
    38    18    19 ar  
    39    18    48 1   
    40    19    49 1   
    41    20    55 2   
    42    21    55 2   
    43    22    50 1   
    44    22    55 1   
    45    23    24 1   
    46    24    25 2   
    47    25    26 1   
    48    25    54 1   
    49    27    28 ar  
    50    27    51 1   
    51    28    29 ar  
    52    28    30 1   
    53    29    52 1   
    54    30    31 1   
    55    30    32 1   
    56    35    54 1   
    57    36    54 1   
    58    37    54 1   
@<TRIPOS>SUBSTRUCTURE
     1 4EL         1 TEMP              0 ****  ****    0 ROOT
