@<TRIPOS>MOLECULE
4EL
   55    58     1     0     0
SMALL
No Charge or Current Charge


@<TRIPOS>ATOM
      1 C10         -3.1670    -0.1170    -0.7130 ca         1 4EL      -0.102000
      2 C15          1.8220     0.9950     1.0940 ca         1 4EL      -0.234000
      3 C17          3.8090     1.8980     0.0250 ca         1 4EL      -0.406500
      4 C24          6.2020     0.1760     0.1080 cc         1 4EL       0.689300
      5 C01         -9.0610     3.8950    -0.0830 c3         1 4EL       0.163900
      6 C03         -7.7650     1.8690     0.4100 ca         1 4EL       0.563300
      7 C04         -7.6360     0.7000     1.1730 ca         1 4EL      -0.189000
      8 C05         -6.5430    -0.1540     0.9580 ca         1 4EL      -0.040000
      9 C06         -5.5900     0.1860    -0.0310 cp         1 4EL      -0.087000
     10 C07         -5.8150     1.3930    -0.7450 ca         1 4EL       0.369900
     11 N08         -6.8700     2.2170    -0.5390 nb         1 4EL      -0.764000
     12 C09         -4.4000    -0.6830    -0.3100 cp         1 4EL      -0.077000
     13 C11         -2.0460    -0.9240    -0.9780 ca         1 4EL      -0.166300
     14 C12         -0.7310    -0.2910    -1.4050 c3         1 4EL       0.273100
     15 N13          0.0570     0.0260    -0.2130 nu         1 4EL      -0.940200
     16 C14          1.3000     0.6480    -0.1570 ca         1 4EL       0.410000
     17 C16          3.0750     1.6200     1.1930 ca         1 4EL       0.052000
     18 C18          3.2860     1.5510    -1.2350 ca         1 4EL       0.052000
     19 C19          2.0330     0.9260    -1.3200 ca         1 4EL      -0.234000
     20 O21          5.8650     3.1590    -1.1580 o          1 4EL      -0.536000
     21 O22          5.4880     3.4840     1.3610 o          1 4EL      -0.536000
     22 N23          6.4630     1.4340     0.5030 nu         1 4EL      -0.858000
     23 N25          6.1370    -0.1650    -1.1670 nd         1 4EL      -0.382000
     24 N26          5.8900    -1.5180    -1.3180 nd         1 4EL      -0.290000
     25 C27          5.8080    -2.1290    -0.1450 cc         1 4EL       0.414700
     26 S29          6.0480    -1.1140     1.2450 ss         1 4EL      -0.338800
     27 C30         -2.1460    -2.3210    -0.8400 ca         1 4EL      -0.057000
     28 C31         -3.3610    -2.9240    -0.4420 ca         1 4EL      -0.140600
     29 C32         -4.4750    -2.0930    -0.1820 ca         1 4EL      -0.056000
     30 C33         -3.4680    -4.4330    -0.3000 c          1 4EL       0.713600
     31 O34         -4.5260    -4.9110     0.0820 o          1 4EL      -0.712500
     32 O35         -2.4920    -5.1170    -0.5730 o          1 4EL      -0.712500
     33 H1          -3.0720     0.9620    -0.8080 ha         1 4EL       0.095000
     34 H2           1.2600     0.7800     1.9970 ha         1 4EL       0.120000
     35 H3           6.4530    -4.1150     0.3480 hc         1 4EL       0.061033
     36 H4           4.7600    -3.7710     0.7560 hc         1 4EL       0.061033
     37 H5           5.2260    -4.0480    -0.9330 hc         1 4EL       0.061033
     38 H6          -8.2230     4.5900     0.0600 h1         1 4EL       0.039367
     39 H7          -9.1660     3.6900    -1.1570 h1         1 4EL       0.039367
     40 H8          -9.9770     4.3950     0.2570 h1         1 4EL       0.039367
     41 H9          -8.3800     0.4660     1.9270 ha         1 4EL       0.129000
     42 H10         -6.4320    -1.0540     1.5580 ha         1 4EL       0.133000
     43 H11         -5.1250     1.7060    -1.5270 h4         1 4EL       0.018100
     44 H12         -0.1790    -0.9850    -2.0540 h1         1 4EL       0.047200
     45 H13         -0.9320     0.6220    -1.9830 h1         1 4EL       0.047200
     46 H14         -0.4010    -0.1310     0.6830 hn         1 4EL       0.501000
     47 H15          3.4670     1.8800     2.1760 ha         1 4EL       0.128500
     48 H16          3.8460     1.7530    -2.1480 ha         1 4EL       0.128500
     49 H17          1.6420     0.6590    -2.2960 ha         1 4EL       0.120000
     50 H18          6.5530     1.5040     1.5030 hn         1 4EL       0.517000
     51 H19         -1.2730    -2.9380    -1.0430 ha         1 4EL       0.133000
     52 H20         -5.4190    -2.5470     0.1090 ha         1 4EL       0.135000
     53 O02         -8.8510     2.6760     0.6550 os         1 4EL      -0.469300
     54 C28          5.5470    -3.5970     0.0140 c3         1 4EL      -0.127400
     55 S20          5.4210     2.6690     0.1490 sy         1 4EL       1.199600
@<TRIPOS>BOND
     1     1    12 ar  
     2     1    13 ar  
     3     1    33 1   
     4     2    16 ar  
     5     2    17 ar  
     6     2    34 1   
     7     3    17 ar  
     8     3    18 ar  
     9     3    55 1   
    10     4    22 1   
    11     4    23 2   
    12     4    26 1   
    13     5    38 1   
    14     5    39 1   
    15     5    40 1   
    16     5    53 1   
    17     6     7 ar  
    18     6    11 ar  
    19     6    53 1   
    20     7     8 ar  
    21     7    41 1   
    22     8     9 ar  
    23     8    42 1   
    24     9    10 ar  
    25     9    12 1   
    26    10    11 ar  
    27    10    43 1   
    28    12    29 ar  
    29    13    14 1   
    30    13    27 ar  
    31    14    15 1   
    32    14    44 1   
    33    14    45 1   
    34    15    16 1   
    35    15    46 1   
    36    16    19 ar  
    37    17    47 1   
    38    18    19 ar  
    39    18    48 1   
    40    19    49 1   
    41    20    55 2   
    42    21    55 2   
    43    22    50 1   
    44    22    55 1   
    45    23    24 1   
    46    24    25 2   
    47    25    26 1   
    48    25    54 1   
    49    27    28 ar  
    50    27    51 1   
    51    28    29 ar  
    52    28    30 1   
    53    29    52 1   
    54    30    31 1   
    55    30    32 1   
    56    35    54 1   
    57    36    54 1   
    58    37    54 1   
@<TRIPOS>SUBSTRUCTURE
     1 4EL         1 TEMP              0 ****  ****    0 ROOT
