@<TRIPOS>MOLECULE
4EO
   34    36     1     0     0
SMALL
No Charge or Current Charge


@<TRIPOS>ATOM
      1 O1           0.5320    -2.5760    -1.1460 o          1 4EO      -0.540000
      2 C6           1.2450    -1.6370    -0.8300 c          1 4EO       0.594000
      3 N2           2.6100    -1.6190    -0.7950 ns         1 4EO      -0.506600
      4 C7           3.1410    -0.4030    -0.3630 ca         1 4EO       0.007600
      5 C12          2.0580     0.4180    -0.1000 ca         1 4EO      -0.002400
      6 C11          2.2470     1.7590     0.2720 ca         1 4EO      -0.099000
      7 C10          3.5750     2.2180     0.4290 ca         1 4EO      -0.112000
      8 C9           4.6740     1.3550     0.1920 ca         1 4EO      -0.106000
      9 C8           4.4650     0.0210    -0.2230 ca         1 4EO      -0.113000
     10 N1           0.8720    -0.3470    -0.3820 n          1 4EO      -0.225200
     11 C5          -0.4740     0.1130    -0.1160 ca         1 4EO      -0.088400
     12 C4          -1.4790    -0.1630    -1.0650 ca         1 4EO      -0.021000
     13 C13         -0.8370     0.7820     1.0780 ca         1 4EO       0.201100
     14 O2           0.0500     0.9410     2.0980 oh         1 4EO      -0.524100
     15 C14         -2.1560     1.2060     1.2820 ca         1 4EO      -0.253000
     16 C15         -3.1370     0.9610     0.3140 ca         1 4EO       0.189100
     17 O3          -4.4140     1.3820     0.5440 oh         1 4EO      -0.526100
     18 C3          -2.8070     0.2660    -0.8690 ca         1 4EO      -0.141300
     19 C2          -3.8550    -0.0420    -1.9390 c3         1 4EO      -0.011100
     20 C1          -4.5990    -1.3610    -1.6610 c3         1 4EO      -0.086100
     21 H7           3.1670    -2.4250    -1.0590 hn         1 4EO       0.468000
     22 H11          1.4080     2.4370     0.4130 ha         1 4EO       0.132000
     23 H10          3.7550     3.2500     0.7230 ha         1 4EO       0.118000
     24 H9           5.6890     1.7280     0.3130 ha         1 4EO       0.117000
     25 H8           5.2990    -0.6440    -0.4330 ha         1 4EO       0.123000
     26 H6          -1.2230    -0.6940    -1.9790 ha         1 4EO       0.126000
     27 H12          0.8960     0.5420     1.8050 ho         1 4EO       0.480000
     28 H13         -2.4130     1.7090     2.2100 ha         1 4EO       0.133000
     29 H14         -4.4350     1.8340     1.4130 ho         1 4EO       0.467000
     30 H5          -4.5850     0.7730    -2.0160 hc         1 4EO       0.045700
     31 H4          -3.3800    -0.1090    -2.9250 hc         1 4EO       0.045700
     32 H2          -5.3360    -1.5590    -2.4480 hc         1 4EO       0.036033
     33 H1          -3.8960    -2.2020    -1.6290 hc         1 4EO       0.036033
     34 H3          -5.1260    -1.3140    -0.7000 hc         1 4EO       0.036033
@<TRIPOS>BOND
     1     1     2 2   
     2     2     3 1   
     3     2    10 1   
     4     3     4 1   
     5     3    21 1   
     6     4     5 ar  
     7     4     9 ar  
     8     5     6 ar  
     9     5    10 1   
    10     6     7 ar  
    11     6    22 1   
    12     7     8 ar  
    13     7    23 1   
    14     8     9 ar  
    15     8    24 1   
    16     9    25 1   
    17    10    11 1   
    18    11    12 ar  
    19    11    13 ar  
    20    12    18 ar  
    21    12    26 1   
    22    13    14 1   
    23    13    15 ar  
    24    14    27 1   
    25    15    16 ar  
    26    15    28 1   
    27    16    17 1   
    28    16    18 ar  
    29    17    29 1   
    30    18    19 1   
    31    19    20 1   
    32    19    30 1   
    33    19    31 1   
    34    20    32 1   
    35    20    33 1   
    36    20    34 1   
@<TRIPOS>SUBSTRUCTURE
     1 4EO         1 TEMP              0 ****  ****    0 ROOT
