@<TRIPOS>MOLECULE
4EO
   34    36     1     0     0
SMALL
bcc


@<TRIPOS>ATOM
      1 O1           0.6310    -2.7760     0.1990 o          1 4EO      -0.615500
      2 C6           1.3220    -1.7900     0.0600 c          1 4EO       0.803500
      3 N2           2.6700    -1.7300    -0.1770 ns         1 4EO      -0.460100
      4 C7           3.0990    -0.4240    -0.2950 ca         1 4EO       0.007600
      5 C12          1.9730     0.3830    -0.1190 ca         1 4EO      -0.002400
      6 C11          2.0490     1.7580    -0.1860 ca         1 4EO      -0.117000
      7 C10          3.3020     2.3160    -0.4300 ca         1 4EO      -0.130000
      8 C9           4.4260     1.5150    -0.6000 ca         1 4EO      -0.124000
      9 C8           4.3420     0.1270    -0.5360 ca         1 4EO      -0.131000
     10 N1           0.9000    -0.4690     0.1170 n          1 4EO      -0.292200
     11 C5          -0.4520    -0.0770     0.2380 ca         1 4EO      -0.088400
     12 C4          -1.2850    -0.0300    -0.8720 ca         1 4EO      -0.039000
     13 C13         -0.9490     0.2830     1.4880 ca         1 4EO       0.201100
     14 O2          -0.2010     0.2640     2.6010 oh         1 4EO      -0.485100
     15 C14         -2.2740     0.6880     1.5960 ca         1 4EO      -0.271000
     16 C15         -3.0900     0.7250     0.4740 ca         1 4EO       0.189100
     17 O3          -4.3770     1.1150     0.5510 oh         1 4EO      -0.487100
     18 C3          -2.6080     0.3620    -0.7920 ca         1 4EO      -0.141300
     19 C2          -3.4980     0.3650    -2.0040 c3         1 4EO      -0.011100
     20 C1          -4.4340    -0.8420    -2.0580 c3         1 4EO      -0.086100
     21 H7           3.2370    -2.5530    -0.2740 hn         1 4EO       0.354500
     22 H11          1.1730     2.3800    -0.0590 ha         1 4EO       0.150000
     23 H10          3.3990     3.3910    -0.4880 ha         1 4EO       0.136000
     24 H9           5.3860     1.9770    -0.7840 ha         1 4EO       0.135000
     25 H8           5.2170    -0.4930    -0.6740 ha         1 4EO       0.141000
     26 H6          -0.8770    -0.3140    -1.8350 ha         1 4EO       0.144000
     27 H12          0.6850    -0.0570     2.4000 ho         1 4EO       0.441000
     28 H13         -2.6530     0.9710     2.5720 ha         1 4EO       0.151000
     29 H14         -4.6080     1.3340     1.4580 ho         1 4EO       0.428000
     30 H5          -4.0850     1.2850    -2.0400 hc         1 4EO       0.045700
     31 H4          -2.8700     0.3720    -2.8970 hc         1 4EO       0.045700
     32 H2          -5.0460    -0.8170    -2.9600 hc         1 4EO       0.036033
     33 H1          -3.8680    -1.7740    -2.0640 hc         1 4EO       0.036033
     34 H3          -5.1050    -0.8630    -1.2010 hc         1 4EO       0.036033
@<TRIPOS>BOND
     1     1     2 2   
     2     2     3 1   
     3     2    10 1   
     4     3     4 1   
     5     3    21 1   
     6     4     5 ar  
     7     4     9 ar  
     8     5     6 ar  
     9     5    10 1   
    10     6     7 ar  
    11     6    22 1   
    12     7     8 ar  
    13     7    23 1   
    14     8     9 ar  
    15     8    24 1   
    16     9    25 1   
    17    10    11 1   
    18    11    12 ar  
    19    11    13 ar  
    20    12    18 ar  
    21    12    26 1   
    22    13    14 1   
    23    13    15 ar  
    24    14    27 1   
    25    15    16 ar  
    26    15    28 1   
    27    16    17 1   
    28    16    18 ar  
    29    17    29 1   
    30    18    19 1   
    31    19    20 1   
    32    19    30 1   
    33    19    31 1   
    34    20    32 1   
    35    20    33 1   
    36    20    34 1   
@<TRIPOS>SUBSTRUCTURE
     1 4EO         1 TEMP              0 ****  ****    0 ROOT
