@<TRIPOS>MOLECULE
4EP
   37    39     1     0     0
SMALL
No Charge or Current Charge


@<TRIPOS>ATOM
      1 O1           0.5530    -2.0790     1.8000 o          1 4EP      -0.554000
      2 C7           1.3580    -1.4900     1.0960 c          1 4EP       0.602000
      3 N2           2.7160    -1.6350     1.1100 ns         1 4EP      -0.505600
      4 C8           3.3720    -0.7980     0.2070 ca         1 4EP       0.005600
      5 C13          2.3830    -0.0660    -0.4290 ca         1 4EP       0.019600
      6 C12          2.7040     0.8200    -1.4700 ca         1 4EP      -0.102000
      7 C11          4.0690     0.9810    -1.8020 ca         1 4EP      -0.114000
      8 C10          5.0740     0.2490    -1.1190 ca         1 4EP      -0.111000
      9 C9           4.7290    -0.6670    -0.1010 ca         1 4EP      -0.114000
     10 N1           1.1230    -0.4950     0.1200 n          1 4EP      -0.199200
     11 C6          -0.1540     0.1070    -0.1980 ca         1 4EP      -0.024400
     12 C5          -1.2670    -0.7430    -0.3630 ca         1 4EP      -0.018000
     13 C14         -0.3510     1.5090    -0.3020 ca         1 4EP       0.189100
     14 O2           0.6390     2.4000    -0.0100 oh         1 4EP      -0.514100
     15 C15         -1.6180     2.0240    -0.6150 ca         1 4EP      -0.309000
     16 C16         -2.7030     1.1640    -0.8130 ca         1 4EP       0.194100
     17 O3          -3.9190     1.7010    -1.1100 oh         1 4EP      -0.526100
     18 C4          -2.5390    -0.2300    -0.6820 ca         1 4EP      -0.141300
     19 C3          -3.7070    -1.1980    -0.8690 c3         1 4EP      -0.012100
     20 C2          -4.4940    -1.4190     0.4410 c3         1 4EP      -0.074400
     21 C1          -5.6710    -2.4010     0.2850 c3         1 4EP      -0.089100
     22 H9           3.1830    -2.2840     1.7340 hn         1 4EP       0.467000
     23 H13          1.9340     1.3560    -2.0180 ha         1 4EP       0.126000
     24 H12          4.3510     1.6660    -2.5980 ha         1 4EP       0.114000
     25 H11          6.1180     0.3820    -1.3930 ha         1 4EP       0.114000
     26 H10          5.4870    -1.2520     0.4140 ha         1 4EP       0.120000
     27 H8          -1.1380    -1.8190    -0.2680 ha         1 4EP       0.131000
     28 H14          0.2680     3.3020    -0.0870 ho         1 4EP       0.467000
     29 H15         -1.7620     3.0990    -0.6860 ha         1 4EP       0.116000
     30 H16         -3.8180     2.6740    -1.1500 ho         1 4EP       0.466000
     31 H6          -4.3910    -0.8350    -1.6460 hc         1 4EP       0.047200
     32 H7          -3.3380    -2.1670    -1.2290 hc         1 4EP       0.047200
     33 H5          -3.8120    -1.7970     1.2130 hc         1 4EP       0.044700
     34 H4          -4.8770    -0.4560     0.8000 hc         1 4EP       0.044700
     35 H1          -5.3140    -3.3860    -0.0390 hc         1 4EP       0.031033
     36 H2          -6.1960    -2.5240     1.2400 hc         1 4EP       0.031033
     37 H3          -6.3890    -2.0310    -0.4560 hc         1 4EP       0.031033
@<TRIPOS>BOND
     1     1     2 2   
     2     2     3 1   
     3     2    10 1   
     4     3     4 1   
     5     3    22 1   
     6     4     5 ar  
     7     4     9 ar  
     8     5     6 ar  
     9     5    10 1   
    10     6     7 ar  
    11     6    23 1   
    12     7     8 ar  
    13     7    24 1   
    14     8     9 ar  
    15     8    25 1   
    16     9    26 1   
    17    10    11 1   
    18    11    12 ar  
    19    11    13 ar  
    20    12    18 ar  
    21    12    27 1   
    22    13    14 1   
    23    13    15 ar  
    24    14    28 1   
    25    15    16 ar  
    26    15    29 1   
    27    16    17 1   
    28    16    18 ar  
    29    17    30 1   
    30    18    19 1   
    31    19    20 1   
    32    19    31 1   
    33    19    32 1   
    34    20    21 1   
    35    20    33 1   
    36    20    34 1   
    37    21    35 1   
    38    21    36 1   
    39    21    37 1   
@<TRIPOS>SUBSTRUCTURE
     1 4EP         1 TEMP              0 ****  ****    0 ROOT
