@<TRIPOS>MOLECULE
4EP
   37    39     1     0     0
SMALL
bcc


@<TRIPOS>ATOM
      1 O1           0.7910    -1.0410     2.5390 o          1 4EP      -0.629500
      2 C7           1.5220    -0.8250     1.5930 c          1 4EP       0.811500
      3 N2           2.8620    -1.0910     1.4880 ns         1 4EP      -0.459100
      4 C8           3.3520    -0.6870     0.2650 ca         1 4EP       0.005600
      5 C13          2.2700    -0.1480    -0.4370 ca         1 4EP       0.019600
      6 C12          2.4150     0.3590    -1.7120 ca         1 4EP      -0.120000
      7 C11          3.6890     0.3140    -2.2760 ca         1 4EP      -0.132000
      8 C10          4.7680    -0.2220    -1.5790 ca         1 4EP      -0.129000
      9 C9           4.6150    -0.7340    -0.2920 ca         1 4EP      -0.132000
     10 N1           1.1630    -0.2560     0.3860 n          1 4EP      -0.266200
     11 C6          -0.1260     0.2380     0.1020 ca         1 4EP      -0.024400
     12 C5          -1.1420    -0.6120    -0.3130 ca         1 4EP      -0.036000
     13 C14         -0.3810     1.6030     0.2290 ca         1 4EP       0.189100
     14 O2           0.6250     2.3920     0.6340 oh         1 4EP      -0.475100
     15 C15         -1.6500     2.0860    -0.0690 ca         1 4EP      -0.327000
     16 C16         -2.6560     1.2160    -0.4770 ca         1 4EP       0.194100
     17 O3          -3.8910     1.6610    -0.7660 oh         1 4EP      -0.487100
     18 C4          -2.4190    -0.1590    -0.6070 ca         1 4EP      -0.141300
     19 C3          -3.5080    -1.1100    -1.0190 c3         1 4EP      -0.012100
     20 C2          -4.4380    -1.4970     0.1330 c3         1 4EP      -0.074400
     21 C1          -5.5380    -2.4510    -0.3090 c3         1 4EP      -0.089100
     22 H9           3.3940    -1.5210     2.2280 hn         1 4EP       0.353500
     23 H13          1.5750     0.7780    -2.2520 ha         1 4EP       0.144000
     24 H12          3.8410     0.7050    -3.2730 ha         1 4EP       0.132000
     25 H11          5.7460    -0.2410    -2.0410 ha         1 4EP       0.132000
     26 H10          5.4550    -1.1490     0.2500 ha         1 4EP       0.138000
     27 H8          -0.9220    -1.6680    -0.4110 ha         1 4EP       0.149000
     28 H14          0.3440     3.3130     0.6590 ho         1 4EP       0.428000
     29 H15         -1.8560     3.1480     0.0240 ha         1 4EP       0.134000
     30 H16         -3.9470     2.6160    -0.6530 ho         1 4EP       0.427000
     31 H6          -4.0990    -0.6820    -1.8320 hc         1 4EP       0.047200
     32 H7          -3.0500    -2.0180    -1.4210 hc         1 4EP       0.047200
     33 H5          -3.8450    -1.9580     0.9280 hc         1 4EP       0.044700
     34 H4          -4.8830    -0.5970     0.5650 hc         1 4EP       0.044700
     35 H1          -5.1200    -3.3700    -0.7260 hc         1 4EP       0.031033
     36 H2          -6.1810    -2.7310     0.5270 hc         1 4EP       0.031033
     37 H3          -6.1700    -1.9990    -1.0750 hc         1 4EP       0.031033
@<TRIPOS>BOND
     1     1     2 2   
     2     2     3 1   
     3     2    10 1   
     4     3     4 1   
     5     3    22 1   
     6     4     5 ar  
     7     4     9 ar  
     8     5     6 ar  
     9     5    10 1   
    10     6     7 ar  
    11     6    23 1   
    12     7     8 ar  
    13     7    24 1   
    14     8     9 ar  
    15     8    25 1   
    16     9    26 1   
    17    10    11 1   
    18    11    12 ar  
    19    11    13 ar  
    20    12    18 ar  
    21    12    27 1   
    22    13    14 1   
    23    13    15 ar  
    24    14    28 1   
    25    15    16 ar  
    26    15    29 1   
    27    16    17 1   
    28    16    18 ar  
    29    17    30 1   
    30    18    19 1   
    31    19    20 1   
    32    19    31 1   
    33    19    32 1   
    34    20    21 1   
    35    20    33 1   
    36    20    34 1   
    37    21    35 1   
    38    21    36 1   
    39    21    37 1   
@<TRIPOS>SUBSTRUCTURE
     1 4EP         1 TEMP              0 ****  ****    0 ROOT
