@<TRIPOS>MOLECULE
4ER
   23    24     1     0     0
SMALL
bcc


@<TRIPOS>ATOM
      1 CL          -1.4000     1.8220    -1.4420 cl         1 4ER      -0.097400
      2 C9          -1.9400     0.4150    -0.5870 ca         1 4ER       0.068400
      3 C8          -3.3090     0.1910    -0.5250 ca         1 4ER      -0.136000
      4 C7          -3.7920    -0.9460     0.1020 ca         1 4ER      -0.107000
      5 C6          -2.9090    -1.8680     0.6460 ca         1 4ER      -0.139000
      6 C5          -1.5450    -1.6420     0.5630 ca         1 4ER      -0.082000
      7 C4          -1.0350    -0.4900    -0.0360 cp         1 4ER      -0.133500
      8 C3           0.4350    -0.2950    -0.0450 cp         1 4ER       0.803500
      9 N4           0.8940     0.8790     0.3430 nb         1 4ER      -0.836000
     10 C2           2.2340     0.9830     0.3280 ca         1 4ER       0.964900
     11 N3           2.7550     2.1570     0.6880 nv         1 4ER      -0.960000
     12 N2           3.0710     0.0070    -0.0160 nb         1 4ER      -0.888000
     13 N5           1.1590    -1.3410    -0.4050 nb         1 4ER      -0.836000
     14 C1           2.4870    -1.1370    -0.3620 ca         1 4ER       0.964900
     15 N1           3.2700    -2.1630    -0.6980 nv         1 4ER      -0.960000
     16 H8          -3.9920     0.9020    -0.9680 ha         1 4ER       0.147000
     17 H7          -4.8600    -1.1130     0.1550 ha         1 4ER       0.135000
     18 H6          -3.2790    -2.7620     1.1290 ha         1 4ER       0.137000
     19 H5          -0.8530    -2.3600     0.9820 ha         1 4ER       0.147000
     20 H4           2.1560     2.9140     0.9640 hn         1 4ER       0.451800
     21 H3           3.7500     2.2920     0.7120 hn         1 4ER       0.451800
     22 H1           4.2700    -2.0650    -0.7020 hn         1 4ER       0.451800
     23 H2           2.8670    -3.0380    -0.9820 hn         1 4ER       0.451800
@<TRIPOS>BOND
     1     1     2 1   
     2     2     3 ar  
     3     2     7 ar  
     4     3     4 ar  
     5     3    16 1   
     6     4     5 ar  
     7     4    17 1   
     8     5     6 ar  
     9     5    18 1   
    10     6     7 ar  
    11     6    19 1   
    12     7     8 1   
    13     8     9 ar  
    14     8    13 ar  
    15     9    10 ar  
    16    10    11 1   
    17    10    12 ar  
    18    11    20 1   
    19    11    21 1   
    20    12    14 ar  
    21    13    14 ar  
    22    14    15 1   
    23    15    22 1   
    24    15    23 1   
@<TRIPOS>SUBSTRUCTURE
     1 4ER         1 TEMP              0 ****  ****    0 ROOT
