@<TRIPOS>MOLECULE
4ER
   23    24     1     0     0
SMALL
No Charge or Current Charge


@<TRIPOS>ATOM
      1 Cl          -1.4740     1.9430    -1.3540 cl         1 4ER      -0.189000
      2 C9          -1.9780     0.4560    -0.5440 ca         1 4ER       0.160000
      3 C8          -3.3620     0.2130    -0.4850 ca         1 4ER      -0.118000
      4 C7          -3.8590    -0.9670     0.0870 ca         1 4ER      -0.089000
      5 C6          -2.9660    -1.9190     0.5990 ca         1 4ER      -0.121000
      6 C5          -1.5820    -1.6870     0.5430 ca         1 4ER      -0.064000
      7 C4          -1.0500    -0.4930    -0.0180 cp         1 4ER      -0.133500
      8 C3           0.4380    -0.2940    -0.0380 cp         1 4ER       0.277500
      9 N4           0.9450     0.9270     0.2390 nb         1 4ER      -0.310000
     10 C2           2.2800     1.0080     0.2310 ca         1 4ER       0.438900
     11 N3           2.8210     2.2130     0.5020 nv         1 4ER      -1.070400
     12 N2           3.1350     0.0120    -0.0130 nb         1 4ER      -0.362000
     13 N5           1.2110    -1.3720    -0.2970 nb         1 4ER      -0.310000
     14 C1           2.5300    -1.1500    -0.2680 ca         1 4ER       0.438900
     15 N1           3.3330    -2.2030    -0.5260 nv         1 4ER      -1.070400
     16 H8          -4.0540     0.9440    -0.8960 ha         1 4ER       0.129000
     17 H7          -4.9310    -1.1460     0.1280 ha         1 4ER       0.117000
     18 H6          -3.3460    -2.8380     1.0400 ha         1 4ER       0.119000
     19 H5          -0.9120    -2.4380     0.9560 ha         1 4ER       0.129000
     20 H4           2.2230     2.9180     0.9260 hn         1 4ER       0.507000
     21 H3           3.8080     2.2510     0.7450 hn         1 4ER       0.507000
     22 H1           4.3060    -2.0110    -0.7500 hn         1 4ER       0.507000
     23 H2           2.9220    -3.0240    -0.9620 hn         1 4ER       0.507000
@<TRIPOS>BOND
     1     1     2 1   
     2     2     3 ar  
     3     2     7 ar  
     4     3     4 ar  
     5     3    16 1   
     6     4     5 ar  
     7     4    17 1   
     8     5     6 ar  
     9     5    18 1   
    10     6     7 ar  
    11     6    19 1   
    12     7     8 1   
    13     8     9 ar  
    14     8    13 ar  
    15     9    10 ar  
    16    10    11 1   
    17    10    12 ar  
    18    11    20 1   
    19    11    21 1   
    20    12    14 ar  
    21    13    14 ar  
    22    14    15 1   
    23    15    22 1   
    24    15    23 1   
@<TRIPOS>SUBSTRUCTURE
     1 4ER         1 TEMP              0 ****  ****    0 ROOT
