@<TRIPOS>MOLECULE
4ES
   27    28     1     0     0
SMALL
bcc


@<TRIPOS>ATOM
      1 O2           4.9130    -1.1590    -0.6840 o          1 4ES      -0.203000
      2 N4           4.3530    -0.2940    -0.0550 no         1 4ES       0.314200
      3 O1           4.9220     0.5800     0.5540 o          1 4ES      -0.203000
      4 C9           2.8960    -0.3070    -0.0320 ca         1 4ES      -0.165200
      5 C8           2.2140    -1.2760    -0.7480 ca         1 4ES      -0.069000
      6 C7           0.8320    -1.2650    -0.7140 ca         1 4ES      -0.118000
      7 C10          2.2350     0.6530     0.7170 ca         1 4ES      -0.068000
      8 C11          0.8520     0.6430     0.7300 ca         1 4ES       0.042400
      9 CL           0.0470     1.8100     1.7130 cl         1 4ES      -0.063400
     10 C6           0.1270    -0.3070     0.0110 cp         1 4ES      -0.094500
     11 C4          -1.3550    -0.3340    -0.0130 cp         1 4ES       0.532800
     12 C3          -2.0390    -1.4800     0.3610 ca         1 4ES      -0.419600
     13 N1          -1.9660     0.7640    -0.4230 nb         1 4ES      -0.761000
     14 C5          -3.3020     0.7210    -0.4550 ca         1 4ES       0.917900
     15 N2          -3.9430     1.8410    -0.8340 nv         1 4ES      -0.950500
     16 N3          -4.0550    -0.3320    -0.1210 nb         1 4ES      -0.778000
     17 C2          -3.4290    -1.4270     0.2820 ca         1 4ES       0.506600
     18 C1          -4.2740    -2.6080     0.6340 c3         1 4ES      -0.153400
     19 H8           2.7340    -2.0250    -1.3260 ha         1 4ES       0.175000
     20 H7           0.2840    -2.0110    -1.2740 ha         1 4ES       0.153000
     21 H9           2.7760     1.3960     1.2840 ha         1 4ES       0.185000
     22 H4          -1.5250    -2.3660     0.7060 ha         1 4ES       0.155000
     23 H5          -4.9270     1.7990    -1.0330 hn         1 4ES       0.445300
     24 H6          -3.4180     2.5910    -1.2480 hn         1 4ES       0.445300
     25 H2          -4.7130    -3.0340    -0.2700 hc         1 4ES       0.057700
     26 H1          -3.6940    -3.3860     1.1260 hc         1 4ES       0.057700
     27 H3          -5.0960    -2.3140     1.2860 hc         1 4ES       0.057700
@<TRIPOS>BOND
     1     1     2 1   
     2     2     3 1   
     3     2     4 1   
     4     4     5 ar  
     5     4     7 ar  
     6     5     6 ar  
     7     5    19 1   
     8     6    10 ar  
     9     6    20 1   
    10     7     8 ar  
    11     7    21 1   
    12     8     9 1   
    13     8    10 ar  
    14    10    11 1   
    15    11    12 ar  
    16    11    13 ar  
    17    12    17 ar  
    18    12    22 1   
    19    13    14 ar  
    20    14    15 1   
    21    14    16 ar  
    22    15    23 1   
    23    15    24 1   
    24    16    17 ar  
    25    17    18 1   
    26    18    25 1   
    27    18    26 1   
    28    18    27 1   
@<TRIPOS>SUBSTRUCTURE
     1 4ES         1 TEMP              0 ****  ****    0 ROOT
