@<TRIPOS>MOLECULE
4ES
   27    28     1     0     0
SMALL
No Charge or Current Charge


@<TRIPOS>ATOM
      1 O2           5.0520    -1.2660    -0.6460 o          1 4ES      -0.393000
      2 N4           4.4880    -0.3260    -0.0700 no         1 4ES       0.694200
      3 O1           5.0950     0.6030     0.4800 o          1 4ES      -0.393000
      4 C9           2.9890    -0.3110    -0.0360 ca         1 4ES      -0.165200
      5 C8           2.2450    -1.3450    -0.6460 ca         1 4ES      -0.051000
      6 C7           0.8420    -1.3240    -0.6090 ca         1 4ES      -0.100000
      7 C10          2.2950     0.7360     0.6130 ca         1 4ES      -0.050000
      8 C11          0.8890     0.7570     0.6490 ca         1 4ES       0.134000
      9 Cl           0.1310     2.0780     1.5420 cl         1 4ES      -0.155000
     10 C6           0.1300    -0.2750     0.0270 cp         1 4ES      -0.094500
     11 C4          -1.3670    -0.3050     0.0260 cp         1 4ES       0.204500
     12 C3          -2.0870    -1.4910     0.3000 ca         1 4ES      -0.271000
     13 N1          -2.0330     0.8190    -0.3070 nb         1 4ES      -0.235000
     14 C5          -3.3710     0.7520    -0.3390 ca         1 4ES       0.391900
     15 N2          -4.0240     1.8930    -0.6740 nv         1 4ES      -1.060900
     16 N3          -4.1400    -0.3170    -0.0860 nb         1 4ES      -0.252000
     17 C2          -3.4910    -1.4510     0.2390 ca         1 4ES       0.178300
     18 C1          -4.3360    -2.6780     0.5220 c3         1 4ES      -0.153400
     19 H8           2.7460    -2.1690    -1.1530 ha         1 4ES       0.157000
     20 H7           0.2930    -2.1280    -1.0950 ha         1 4ES       0.135000
     21 H9           2.8380     1.5400     1.1050 ha         1 4ES       0.167000
     22 H4          -1.5690    -2.4100     0.5590 ha         1 4ES       0.137000
     23 H5          -5.0080     1.8310    -0.9270 hn         1 4ES       0.500500
     24 H6          -3.4930     2.6570    -1.0860 hn         1 4ES       0.500500
     25 H2          -4.5880    -3.1990    -0.4090 hc         1 4ES       0.057700
     26 H1          -3.8040    -3.3860     1.1690 hc         1 4ES       0.057700
     27 H3          -5.2730    -2.4120     1.0250 hc         1 4ES       0.057700
@<TRIPOS>BOND
     1     1     2 1   
     2     2     3 1   
     3     2     4 1   
     4     4     5 ar  
     5     4     7 ar  
     6     5     6 ar  
     7     5    19 1   
     8     6    10 ar  
     9     6    20 1   
    10     7     8 ar  
    11     7    21 1   
    12     8     9 1   
    13     8    10 ar  
    14    10    11 1   
    15    11    12 ar  
    16    11    13 ar  
    17    12    17 ar  
    18    12    22 1   
    19    13    14 ar  
    20    14    15 1   
    21    14    16 ar  
    22    15    23 1   
    23    15    24 1   
    24    16    17 ar  
    25    17    18 1   
    26    18    25 1   
    27    18    26 1   
    28    18    27 1   
@<TRIPOS>SUBSTRUCTURE
     1 4ES         1 TEMP              0 ****  ****    0 ROOT
