@<TRIPOS>MOLECULE
4ET
   26    27     1     0     0
SMALL
No Charge or Current Charge


@<TRIPOS>ATOM
      1 Cl          33.3460    11.6620    23.0820 cl         1 4ET      -0.206000
      2 C10         31.6760    11.5210    23.6150 ca         1 4ET       0.057000
      3 C9          31.3450    10.6330    24.6520 ca         1 4ET      -0.017000
      4 C11         30.6800    12.3000    23.0070 ca         1 4ET      -0.028000
      5 C12         29.3500    12.1960    23.4500 ca         1 4ET      -0.167000
      6 C13         29.0150    11.3130    24.4870 ca         1 4ET       0.216100
      7 O3          27.7220    11.2570    24.9040 oh         1 4ET      -0.544100
      8 C8          30.0030    10.5020    25.0880 ca         1 4ET      -0.278600
      9 C7          29.6480     9.5440    26.1990 c          1 4ET       0.620300
     10 O2          28.6590     9.7530    26.8940 o          1 4ET      -0.576100
     11 C4          30.4960     8.3190    26.4340 ca         1 4ET      -0.207600
     12 C3          30.6890     7.8460    27.7490 ca         1 4ET      -0.021500
     13 C2          31.4630     6.6950    27.9840 ca         1 4ET      -0.186500
     14 C5          31.0620     7.6050    25.3550 ca         1 4ET      -0.021500
     15 C6          31.8340     6.4550    25.5960 ca         1 4ET      -0.186500
     16 C1          32.0370     6.0040    26.9070 ca         1 4ET       0.166100
     17 O1          32.7870     4.8880    27.1260 oh         1 4ET      -0.530100
     18 H6          32.1420    10.0580    25.1190 ha         1 4ET       0.136000
     19 H7          30.9380    12.9870    22.2050 ha         1 4ET       0.133000
     20 H8          28.5780    12.8070    22.9900 ha         1 4ET       0.140000
     21 H9          27.7220    10.7200    25.7360 ho         1 4ET       0.517000
     22 H3          30.2460     8.3740    28.5920 ha         1 4ET       0.128500
     23 H2          31.6090     6.3480    29.0040 ha         1 4ET       0.128500
     24 H4          30.8970     7.9280    24.3290 ha         1 4ET       0.128500
     25 H5          32.2700     5.9110    24.7620 ha         1 4ET       0.128500
     26 H1          32.8190     4.7210    28.0920 ho         1 4ET       0.470000
@<TRIPOS>BOND
     1     1     2 1   
     2     2     3 ar  
     3     2     4 ar  
     4     3     8 ar  
     5     3    18 1   
     6     4     5 ar  
     7     4    19 1   
     8     5     6 ar  
     9     5    20 1   
    10     6     7 1   
    11     6     8 ar  
    12     7    21 1   
    13     8     9 1   
    14     9    10 2   
    15     9    11 1   
    16    11    12 ar  
    17    11    14 ar  
    18    12    13 ar  
    19    12    22 1   
    20    13    16 ar  
    21    13    23 1   
    22    14    15 ar  
    23    14    24 1   
    24    15    16 ar  
    25    15    25 1   
    26    16    17 1   
    27    17    26 1   
@<TRIPOS>SUBSTRUCTURE
     1 4ET         1 TEMP              0 ****  ****    0 ROOT
