@<TRIPOS>MOLECULE
4ET
   26    27     1     0     0
SMALL
abcg2


@<TRIPOS>ATOM
      1 CL          33.2590    11.6040    22.9440 cl         1 4ET      -0.206000
      2 C10         31.6220    11.4820    23.5550 ca         1 4ET       0.057000
      3 C9          31.3290    10.5630    24.5390 ca         1 4ET      -0.017000
      4 C11         30.6350    12.3210    23.0400 ca         1 4ET      -0.028000
      5 C12         29.3510    12.2540    23.5450 ca         1 4ET      -0.167000
      6 C13         29.0360    11.3520    24.5650 ca         1 4ET       0.216100
      7 O3          27.7860    11.3630    25.0540 oh         1 4ET      -0.544100
      8 C8          30.0250    10.4600    25.0470 ca         1 4ET      -0.278600
      9 C7          29.6710     9.4790    26.0900 c          1 4ET       0.620300
     10 O2          28.6270     9.6290    26.7470 o          1 4ET      -0.576100
     11 C4          30.5320     8.3110    26.3650 ca         1 4ET      -0.207600
     12 C3          30.6320     7.8500    27.6830 ca         1 4ET      -0.021500
     13 C2          31.3870     6.7340    27.9910 ca         1 4ET      -0.186500
     14 C5          31.1840     7.5970    25.3520 ca         1 4ET      -0.021500
     15 C6          31.9180     6.4620    25.6450 ca         1 4ET      -0.186500
     16 C1          32.0330     6.0320    26.9680 ca         1 4ET       0.166100
     17 O1          32.7780     4.9260    27.2070 oh         1 4ET      -0.530100
     18 H6          32.1130     9.9370    24.9350 ha         1 4ET       0.136000
     19 H7          30.8770    13.0310    22.2610 ha         1 4ET       0.133000
     20 H8          28.5770    12.9120    23.1740 ha         1 4ET       0.140000
     21 H9          27.7850    10.7460    25.8310 ho         1 4ET       0.517000
     22 H3          30.1220     8.3870    28.4720 ha         1 4ET       0.128500
     23 H2          31.4800     6.3950    29.0160 ha         1 4ET       0.128500
     24 H4          31.0880     7.9070    24.3210 ha         1 4ET       0.128500
     25 H5          32.4040     5.8970    24.8600 ha         1 4ET       0.128500
     26 H1          32.7800     4.7180    28.1520 ho         1 4ET       0.470000
@<TRIPOS>BOND
     1     1     2 1   
     2     2     3 ar  
     3     2     4 ar  
     4     3     8 ar  
     5     3    18 1   
     6     4     5 ar  
     7     4    19 1   
     8     5     6 ar  
     9     5    20 1   
    10     6     7 1   
    11     6     8 ar  
    12     7    21 1   
    13     8     9 1   
    14     9    10 2   
    15     9    11 1   
    16    11    12 ar  
    17    11    14 ar  
    18    12    13 ar  
    19    12    22 1   
    20    13    16 ar  
    21    13    23 1   
    22    14    15 ar  
    23    14    24 1   
    24    15    16 ar  
    25    15    25 1   
    26    16    17 1   
    27    17    26 1   
@<TRIPOS>SUBSTRUCTURE
     1 4ET         1 TEMP              0 ****  ****    0 ROOT
