@<TRIPOS>MOLECULE
4EU
   27    28     1     0     0
SMALL
No Charge or Current Charge


@<TRIPOS>ATOM
      1 O2           2.8930   -34.1170   -27.1960 o          1 4EU      -0.514100
      2 C7           2.2670   -34.6370   -26.2790 c          1 4EU       0.609300
      3 C4           1.6750   -36.0210   -26.4310 ca         1 4EU      -0.207600
      4 C3           1.2860   -36.7790   -25.3030 ca         1 4EU      -0.025500
      5 C2           0.7430   -38.0660   -25.4640 ca         1 4EU      -0.188000
      6 C5           1.5250   -36.5850   -27.7180 ca         1 4EU      -0.025500
      7 C6           0.9810   -37.8720   -27.8710 ca         1 4EU      -0.188000
      8 C1           0.5890   -38.6100   -26.7470 ca         1 4EU       0.158100
      9 O1           0.0640   -39.8560   -26.9080 oh         1 4EU      -0.533100
     10 C8           2.0200   -33.8930   -24.9970 ca         1 4EU      -0.231600
     11 C13          3.0830   -33.3440   -24.2560 ca         1 4EU       0.224100
     12 O4           4.3720   -33.5080   -24.6570 oh         1 4EU      -0.511100
     13 C12          2.8310   -32.6430   -23.0680 ca         1 4EU      -0.314000
     14 C11          1.5160   -32.4850   -22.6160 ca         1 4EU       0.196100
     15 O3           1.2710   -31.8060   -21.4650 oh         1 4EU      -0.530100
     16 C10          0.4500   -33.0260   -23.3450 ca         1 4EU      -0.188000
     17 C9           0.6970   -33.7290   -24.5350 ca         1 4EU      -0.012000
     18 H3           1.4110   -36.3850   -24.2960 ha         1 4EU       0.128000
     19 H2           0.4490   -38.6340   -24.5850 ha         1 4EU       0.125000
     20 H4           1.8230   -36.0260   -28.6040 ha         1 4EU       0.128000
     21 H5           0.8650   -38.2960   -28.8650 ha         1 4EU       0.125000
     22 H1          -0.1490   -40.2190   -26.0220 ho         1 4EU       0.466000
     23 H10          4.9490   -33.0520   -24.0110 ho         1 4EU       0.465000
     24 H9           3.6560   -32.2260   -22.4960 ha         1 4EU       0.117000
     25 H8           2.1320   -31.5060   -21.1030 ho         1 4EU       0.467000
     26 H7          -0.5690   -32.8990   -22.9900 ha         1 4EU       0.136000
     27 H6          -0.1390   -34.1400   -25.1000 ha         1 4EU       0.126000
@<TRIPOS>BOND
     1     1     2 2   
     2     2     3 1   
     3     2    10 1   
     4     3     4 ar  
     5     3     6 ar  
     6     4     5 ar  
     7     4    18 1   
     8     5     8 ar  
     9     5    19 1   
    10     6     7 ar  
    11     6    20 1   
    12     7     8 ar  
    13     7    21 1   
    14     8     9 1   
    15     9    22 1   
    16    10    11 ar  
    17    10    17 ar  
    18    11    12 1   
    19    11    13 ar  
    20    12    23 1   
    21    13    14 ar  
    22    13    24 1   
    23    14    15 1   
    24    14    16 ar  
    25    15    25 1   
    26    16    17 ar  
    27    16    26 1   
    28    17    27 1   
@<TRIPOS>SUBSTRUCTURE
     1 4EU         1 TEMP              0 ****  ****    0 ROOT
