@<TRIPOS>MOLECULE
4EU
   27    28     1     0     0
SMALL
abcg2


@<TRIPOS>ATOM
      1 O2           3.0660   -34.2840   -27.0660 o          1 4EU      -0.514100
      2 C7           2.3410   -34.7380   -26.1850 c          1 4EU       0.609300
      3 C4           1.6780   -36.0540   -26.3630 ca         1 4EU      -0.207600
      4 C3           1.2940   -36.8500   -25.2790 ca         1 4EU      -0.025500
      5 C2           0.7380   -38.1040   -25.4770 ca         1 4EU      -0.188000
      6 C5           1.4860   -36.5510   -27.6590 ca         1 4EU      -0.025500
      7 C6           0.9120   -37.7890   -27.8710 ca         1 4EU      -0.188000
      8 C1           0.5390   -38.5740   -26.7760 ca         1 4EU       0.158100
      9 O1          -0.0110   -39.7870   -27.0340 oh         1 4EU      -0.533100
     10 C8           2.0870   -33.9800   -24.9320 ca         1 4EU      -0.231600
     11 C13          3.1120   -33.3040   -24.2460 ca         1 4EU       0.224100
     12 O4           4.3910   -33.4410   -24.6800 oh         1 4EU      -0.511100
     13 C12          2.8250   -32.5470   -23.1140 ca         1 4EU      -0.314000
     14 C11          1.5140   -32.4350   -22.6610 ca         1 4EU       0.196100
     15 O3           1.1910   -31.6980   -21.5680 oh         1 4EU      -0.530100
     16 C10          0.4790   -33.0940   -23.3280 ca         1 4EU      -0.188000
     17 C9           0.7820   -33.8610   -24.4360 ca         1 4EU      -0.012000
     18 H3           1.4510   -36.4990   -24.2690 ha         1 4EU       0.128000
     19 H2           0.4590   -38.7230   -24.6330 ha         1 4EU       0.125000
     20 H4           1.7850   -35.9430   -28.5020 ha         1 4EU       0.128000
     21 H5           0.7480   -38.1660   -28.8720 ha         1 4EU       0.125000
     22 H1          -0.2300   -40.2390   -26.2060 ho         1 4EU       0.466000
     23 H10          4.9930   -32.9870   -24.0750 ho         1 4EU       0.465000
     24 H9           3.6280   -32.0450   -22.5840 ha         1 4EU       0.117000
     25 H8           1.9840   -31.2960   -21.1860 ho         1 4EU       0.467000
     26 H7          -0.5370   -32.9980   -22.9710 ha         1 4EU       0.136000
     27 H6          -0.0180   -34.3710   -24.9550 ha         1 4EU       0.126000
@<TRIPOS>BOND
     1     1     2 2   
     2     2     3 1   
     3     2    10 1   
     4     3     4 ar  
     5     3     6 ar  
     6     4     5 ar  
     7     4    18 1   
     8     5     8 ar  
     9     5    19 1   
    10     6     7 ar  
    11     6    20 1   
    12     7     8 ar  
    13     7    21 1   
    14     8     9 1   
    15     9    22 1   
    16    10    11 ar  
    17    10    17 ar  
    18    11    12 1   
    19    11    13 ar  
    20    12    23 1   
    21    13    14 ar  
    22    13    24 1   
    23    14    15 1   
    24    14    16 ar  
    25    15    25 1   
    26    16    17 ar  
    27    16    26 1   
    28    17    27 1   
@<TRIPOS>SUBSTRUCTURE
     1 4EU         1 TEMP              0 ****  ****    0 ROOT
