@<TRIPOS>MOLECULE
4EV
   27    28     1     0     0
SMALL
abcg2


@<TRIPOS>ATOM
      1 O2          -3.5900    34.7810   -26.5830 o          1 4EV      -0.577100
      2 C7          -2.5760    34.9890   -25.8890 c          1 4EV       0.617300
      3 C5          -1.7670    36.2080   -26.1830 ca         1 4EV      -0.119600
      4 C4          -1.3990    37.1060   -25.1780 ca         1 4EV      -0.117000
      5 C3          -0.7090    38.2630   -25.5180 ca         1 4EV      -0.078000
      6 C2          -0.3600    38.5210   -26.8380 ca         1 4EV      -0.181000
      7 C6          -1.4430    36.4720   -27.5130 ca         1 4EV      -0.096000
      8 C1          -0.7250    37.6180   -27.8370 ca         1 4EV       0.128100
      9 O1          -0.4090    37.8130   -29.1480 oh         1 4EV      -0.533100
     10 C8          -2.1870    34.0730   -24.8300 ca         1 4EV      -0.331600
     11 C13         -3.0600    33.0110   -24.4630 ca         1 4EV       0.263100
     12 O4          -4.2350    32.8270   -25.0820 oh         1 4EV      -0.550100
     13 C12         -2.7130    32.1300   -23.4440 ca         1 4EV      -0.283000
     14 C11         -1.4900    32.2660   -22.8020 ca         1 4EV       0.217100
     15 O3          -1.1010    31.4260   -21.8170 oh         1 4EV      -0.528100
     16 C10         -0.5920    33.2820   -23.1680 ca         1 4EV      -0.205000
     17 C9          -0.9480    34.1610   -24.1620 ca         1 4EV       0.017000
     18 H4          -1.6700    36.9140   -24.1500 ha         1 4EV       0.125000
     19 H3          -0.4350    38.9720   -24.7470 ha         1 4EV       0.118000
     20 H2           0.1900    39.4170   -27.0990 ha         1 4EV       0.116000
     21 H5          -1.7360    35.7850   -28.2950 ha         1 4EV       0.143000
     22 H1           0.0930    38.6330   -29.2490 ho         1 4EV       0.465000
     23 H10         -4.2730    33.5040   -25.8110 ho         1 4EV       0.521000
     24 H9          -3.3970    31.3350   -23.1750 ha         1 4EV       0.135000
     25 H8          -1.7850    30.7630   -21.6450 ho         1 4EV       0.473000
     26 H7           0.3640    33.3530   -22.6680 ha         1 4EV       0.136000
     27 H6          -0.2500    34.9320   -24.4530 ha         1 4EV       0.124000
@<TRIPOS>BOND
     1     1     2 2   
     2     2     3 1   
     3     2    10 1   
     4     3     4 ar  
     5     3     7 ar  
     6     4     5 ar  
     7     4    18 1   
     8     5     6 ar  
     9     5    19 1   
    10     6     8 ar  
    11     6    20 1   
    12     7     8 ar  
    13     7    21 1   
    14     8     9 1   
    15     9    22 1   
    16    10    11 ar  
    17    10    17 ar  
    18    11    12 1   
    19    11    13 ar  
    20    12    23 1   
    21    13    14 ar  
    22    13    24 1   
    23    14    15 1   
    24    14    16 ar  
    25    15    25 1   
    26    16    17 ar  
    27    16    26 1   
    28    17    27 1   
@<TRIPOS>SUBSTRUCTURE
     1 4EV         1 TEMP              0 ****  ****    0 ROOT
