@<TRIPOS>MOLECULE
4EV
   27    28     1     0     0
SMALL
No Charge or Current Charge


@<TRIPOS>ATOM
      1 O2          -3.3100    34.4250   -26.9090 o          1 4EV      -0.577100
      2 C7          -2.4440    34.7920   -26.1200 c          1 4EV       0.617300
      3 C5          -1.7200    36.1020   -26.3330 ca         1 4EV      -0.119600
      4 C4          -1.3540    36.9280   -25.2450 ca         1 4EV      -0.117000
      5 C3          -0.6990    38.1520   -25.4670 ca         1 4EV      -0.078000
      6 C2          -0.4110    38.5690   -26.7780 ca         1 4EV      -0.181000
      7 C6          -1.4420    36.5440   -27.6460 ca         1 4EV      -0.096000
      8 C1          -0.7870    37.7660   -27.8650 ca         1 4EV       0.128100
      9 O1          -0.5180    38.1710   -29.1390 oh         1 4EV      -0.533100
     10 C8          -2.1200    33.9370   -24.9180 ca         1 4EV      -0.331600
     11 C13         -3.0760    33.0480   -24.3870 ca         1 4EV       0.263100
     12 O4          -4.3040    32.9310   -24.9510 oh         1 4EV      -0.550100
     13 C12         -2.7790    32.2620   -23.2680 ca         1 4EV      -0.283000
     14 C11         -1.5150    32.3390   -22.6760 ca         1 4EV       0.217100
     15 O3          -1.2200    31.5750   -21.5910 oh         1 4EV      -0.528100
     16 C10         -0.5440    33.1940   -23.2070 ca         1 4EV      -0.205000
     17 C9          -0.8380    33.9880   -24.3270 ca         1 4EV       0.017000
     18 H4          -1.5890    36.6320   -24.2250 ha         1 4EV       0.125000
     19 H3          -0.4190    38.7790   -24.6230 ha         1 4EV       0.118000
     20 H2           0.0960    39.5180   -26.9390 ha         1 4EV       0.116000
     21 H5          -1.7290    35.9340   -28.4990 ha         1 4EV       0.143000
     22 H1          -0.0630    39.0400   -29.1000 ho         1 4EV       0.465000
     23 H10         -4.2520    33.4220   -25.8090 ho         1 4EV       0.521000
     24 H9          -3.5350    31.5910   -22.8710 ha         1 4EV       0.135000
     25 H8          -2.0150    31.0450   -21.3690 ho         1 4EV       0.473000
     26 H7           0.4420    33.2410   -22.7530 ha         1 4EV       0.136000
     27 H6          -0.0580    34.6300   -24.7340 ha         1 4EV       0.124000
@<TRIPOS>BOND
     1     1     2 2   
     2     2     3 1   
     3     2    10 1   
     4     3     4 ar  
     5     3     7 ar  
     6     4     5 ar  
     7     4    18 1   
     8     5     6 ar  
     9     5    19 1   
    10     6     8 ar  
    11     6    20 1   
    12     7     8 ar  
    13     7    21 1   
    14     8     9 1   
    15     9    22 1   
    16    10    11 ar  
    17    10    17 ar  
    18    11    12 1   
    19    11    13 ar  
    20    12    23 1   
    21    13    14 ar  
    22    13    24 1   
    23    14    15 1   
    24    14    16 ar  
    25    15    25 1   
    26    16    17 ar  
    27    16    26 1   
    28    17    27 1   
@<TRIPOS>SUBSTRUCTURE
     1 4EV         1 TEMP              0 ****  ****    0 ROOT
