@<TRIPOS>MOLECULE
4EW
   50    55     1     0     0
SMALL
No Charge or Current Charge


@<TRIPOS>ATOM
      1 C23         -5.3500     1.4140    -0.1740 c6         1 4EW      -0.078400
      2 C24         -5.2600     0.6330    -1.5230 c6         1 4EW      -0.075400
      3 C25         -4.5900    -0.7580    -1.2990 c6         1 4EW      -0.075700
      4 C26         -5.4580    -1.5470    -0.2650 c6         1 4EW      -0.075400
      5 C27         -5.5580    -0.7560     1.0780 c6         1 4EW      -0.078400
      6 C28         -2.3070     1.3570     0.7980 cc         1 4EW       0.428800
      7 C1           4.2810    -0.3660     0.3200 ca         1 4EW      -0.006000
      8 C2           5.5650     0.1880     0.4620 ca         1 4EW       0.029000
      9 C3           5.7870     1.5190     0.0350 ca         1 4EW       0.366900
     10 N4           4.8170     2.3020    -0.5100 nb         1 4EW      -0.670000
     11 C5           3.5920     1.7560    -0.6400 ca         1 4EW       0.355500
     12 C6           3.2980     0.4630    -0.2500 ca         1 4EW      -0.090800
     13 C7           1.9040     0.2290    -0.5340 cc         1 4EW      -0.223000
     14 C8           1.4040     1.3990    -1.0900 cd         1 4EW      -0.077100
     15 N9           2.4540     2.3460    -1.1550 na         1 4EW      -0.310400
     16 C11          1.0570    -0.9580    -0.3290 ca         1 4EW       0.279800
     17 N12          1.6550    -2.0910     0.1030 nb         1 4EW      -0.202000
     18 C13          0.8770    -3.1760     0.2870 ca         1 4EW       0.118900
     19 C14         -0.5020    -3.1320     0.0430 ca         1 4EW      -0.032000
     20 C15         -1.0440    -1.9110    -0.4020 ca         1 4EW       0.373900
     21 N16         -0.2660    -0.8310    -0.5910 nb         1 4EW      -0.276000
     22 N17         -2.4120    -1.7780    -0.6520 nu         1 4EW      -0.927100
     23 C18         -3.1540    -0.5080    -0.7340 c6         1 4EW       0.254500
     24 C20         -3.2520     0.1810     0.6720 c6         1 4EW      -0.118000
     25 C22         -4.7400     0.5670     0.9870 c6         1 4EW      -0.055700
     26 N29         -2.1470     2.3860    -0.0900 na         1 4EW      -0.219700
     27 N31         -1.2200     3.2700     0.3550 nc         1 4EW      -0.224800
     28 N32         -0.8260     2.7760     1.4950 nd         1 4EW      -0.040000
     29 N33         -1.4810     1.6060     1.7950 nd         1 4EW      -0.386000
     30 H1          -4.8520     2.3890    -0.2560 hc         1 4EW       0.050200
     31 H2          -6.4020     1.6410     0.0500 hc         1 4EW       0.050200
     32 H3          -6.2650     0.5020    -1.9480 hc         1 4EW       0.043950
     33 H4          -4.6900     1.2150    -2.2600 hc         1 4EW       0.043950
     34 H5          -4.5350    -1.3030    -2.2520 hc         1 4EW       0.067700
     35 H6          -6.4640    -1.7140    -0.6730 hc         1 4EW       0.043950
     36 H7          -5.0360    -2.5450    -0.0840 hc         1 4EW       0.043950
     37 H8          -6.6100    -0.5350     1.3060 hc         1 4EW       0.050200
     38 H9          -5.1900    -1.3760     1.9080 hc         1 4EW       0.050200
     39 H10          4.0780    -1.3820     0.6410 ha         1 4EW       0.156000
     40 H11          6.7730     1.9710     0.1340 h4         1 4EW       0.034100
     41 H12          0.4000     1.6280    -1.4420 h4         1 4EW       0.224000
     42 H13          2.3980     3.2920    -1.5090 hn         1 4EW       0.370000
     43 H14          1.3670    -4.0840     0.6350 h4         1 4EW       0.038100
     44 H15         -2.9500    -2.6340    -0.5180 hn         1 4EW       0.510000
     45 H16         -2.6430     0.1590    -1.4460 h1         1 4EW       0.068700
     46 H17         -2.9490    -0.5500     1.4340 hc         1 4EW       0.099700
     47 H18         -4.8050     1.1140     1.9380 hc         1 4EW       0.074700
     48 H19         -2.6400     2.5200    -0.9640 hn         1 4EW       0.384000
     49 F34         -1.2770    -4.2280     0.2390 f          1 4EW      -0.175000
     50 Cl3          6.8710    -0.7660     1.1640 cl         1 4EW      -0.196000
@<TRIPOS>BOND
     1     1     2 1   
     2     1    25 1   
     3     1    30 1   
     4     1    31 1   
     5     2     3 1   
     6     2    32 1   
     7     2    33 1   
     8     3     4 1   
     9     3    23 1   
    10     3    34 1   
    11     4     5 1   
    12     4    35 1   
    13     4    36 1   
    14     5    25 1   
    15     5    37 1   
    16     5    38 1   
    17     6    24 1   
    18     6    26 1   
    19     6    29 2   
    20     7     8 ar  
    21     7    12 ar  
    22     7    39 1   
    23     8     9 ar  
    24     8    50 1   
    25     9    10 ar  
    26     9    40 1   
    27    10    11 ar  
    28    11    12 ar  
    29    11    15 1   
    30    12    13 1   
    31    13    14 2   
    32    13    16 1   
    33    14    15 1   
    34    14    41 1   
    35    15    42 1   
    36    16    17 ar  
    37    16    21 ar  
    38    17    18 ar  
    39    18    19 ar  
    40    18    43 1   
    41    19    20 ar  
    42    19    49 1   
    43    20    21 ar  
    44    20    22 1   
    45    22    23 1   
    46    22    44 1   
    47    23    24 1   
    48    23    45 1   
    49    24    25 1   
    50    24    46 1   
    51    25    47 1   
    52    26    27 1   
    53    26    48 1   
    54    27    28 2   
    55    28    29 1   
@<TRIPOS>SUBSTRUCTURE
     1 4EW         1 TEMP              0 ****  ****    0 ROOT
