@<TRIPOS>MOLECULE
4EW
   50    55     1     0     0
SMALL
bcc


@<TRIPOS>ATOM
      1 C23         -5.3690     1.3340    -0.1730 c6         1 4EW      -0.078400
      2 C24         -5.0930     0.6270    -1.5170 c6         1 4EW      -0.075400
      3 C25         -4.4760    -0.7500    -1.2600 c6         1 4EW      -0.075700
      4 C26         -5.3750    -1.5200    -0.2900 c6         1 4EW      -0.075400
      5 C27         -5.3790    -0.8130     1.0800 c6         1 4EW      -0.078400
      6 C28         -2.4240     1.5610     0.6390 cc         1 4EW       0.428800
      7 C1           4.2780    -0.5010     0.1810 ca         1 4EW      -0.024000
      8 C2           5.5360     0.0680     0.2330 ca         1 4EW      -0.127900
      9 C3           5.7370     1.4230    -0.0550 ca         1 4EW       0.432200
     10 N4           4.7520     2.2360    -0.3910 nb         1 4EW      -0.670000
     11 C5           3.5510     1.6900    -0.4420 ca         1 4EW       0.420800
     12 C6           3.2270     0.3420    -0.1720 ca         1 4EW      -0.156100
     13 C7           1.8110     0.2150    -0.3550 cc         1 4EW      -0.223000
     14 C8           1.3620     1.4610    -0.7200 cd         1 4EW      -0.027100
     15 N9           2.3950     2.3370    -0.7700 na         1 4EW      -0.260100
     16 C11          0.9930    -0.9760    -0.2020 ca         1 4EW       0.805800
     17 N12          1.6180    -2.1070     0.0880 nb         1 4EW      -0.728000
     18 C13          0.8510    -3.1970     0.2090 ca         1 4EW       0.447200
     19 C14         -0.4970    -3.1450     0.0360 ca         1 4EW      -0.197700
     20 C15         -1.0970    -1.9050    -0.2640 ca         1 4EW       0.702200
     21 N16         -0.3240    -0.8330    -0.3700 nb         1 4EW      -0.802000
     22 N17         -2.4200    -1.7960    -0.4520 nu         1 4EW      -0.871900
     23 C18         -3.0830    -0.5310    -0.6680 c6         1 4EW       0.254500
     24 C20         -3.2080     0.3010     0.6480 c6         1 4EW      -0.118000
     25 C22         -4.7000     0.5510     0.9560 c6         1 4EW      -0.055700
     26 N29         -2.2780     2.4190    -0.3740 na         1 4EW      -0.169400
     27 N31         -1.5280     3.4400     0.0170 nc         1 4EW      -0.224800
     28 N32         -1.2300     3.2130     1.2340 nd         1 4EW      -0.040000
     29 N33         -1.7630     2.0660     1.6560 nd         1 4EW      -0.386000
     30 H1          -5.0330     2.3720    -0.1940 hc         1 4EW       0.050200
     31 H2          -6.4420     1.3790     0.0240 hc         1 4EW       0.050200
     32 H3          -6.0130     0.5150    -2.0920 hc         1 4EW       0.043950
     33 H4          -4.4190     1.2180    -2.1460 hc         1 4EW       0.043950
     34 H5          -4.3770    -1.2930    -2.2030 hc         1 4EW       0.067700
     35 H6          -6.3820    -1.5600    -0.7120 hc         1 4EW       0.043950
     36 H7          -5.0650    -2.5630    -0.1930 hc         1 4EW       0.043950
     37 H8          -6.4000    -0.6780     1.4410 hc         1 4EW       0.050200
     38 H9          -4.8630    -1.4150     1.8320 hc         1 4EW       0.050200
     39 H10          4.1150    -1.5460     0.3980 ha         1 4EW       0.174000
     40 H11          6.7350     1.8440    -0.0080 h4         1 4EW       0.034100
     41 H12          0.3630     1.7740    -0.9690 h4         1 4EW       0.174000
     42 H13          2.3230     3.3110    -1.0180 hn         1 4EW       0.319700
     43 H14          1.3410    -4.1350     0.4500 h4         1 4EW       0.038100
     44 H15         -2.9910    -2.6070    -0.2800 hn         1 4EW       0.454800
     45 H16         -2.4890     0.0180    -1.4030 h1         1 4EW       0.068700
     46 H17         -2.7990    -0.2850     1.4730 hc         1 4EW       0.099700
     47 H18         -4.7800     1.0950     1.9000 hc         1 4EW       0.074700
     48 H19         -2.6270     2.3810    -1.3220 hn         1 4EW       0.333700
     49 F34         -1.2670    -4.2390     0.1510 f          1 4EW      -0.139900
     50 CL3          6.9070    -0.9010     0.6580 cl         1 4EW      -0.104400
@<TRIPOS>BOND
     1     1     2 1   
     2     1    25 1   
     3     1    30 1   
     4     1    31 1   
     5     2     3 1   
     6     2    32 1   
     7     2    33 1   
     8     3     4 1   
     9     3    23 1   
    10     3    34 1   
    11     4     5 1   
    12     4    35 1   
    13     4    36 1   
    14     5    25 1   
    15     5    37 1   
    16     5    38 1   
    17     6    24 1   
    18     6    26 1   
    19     6    29 2   
    20     7     8 ar  
    21     7    12 ar  
    22     7    39 1   
    23     8     9 ar  
    24     8    50 1   
    25     9    10 ar  
    26     9    40 1   
    27    10    11 ar  
    28    11    12 ar  
    29    11    15 1   
    30    12    13 1   
    31    13    14 2   
    32    13    16 1   
    33    14    15 1   
    34    14    41 1   
    35    15    42 1   
    36    16    17 ar  
    37    16    21 ar  
    38    17    18 ar  
    39    18    19 ar  
    40    18    43 1   
    41    19    20 ar  
    42    19    49 1   
    43    20    21 ar  
    44    20    22 1   
    45    22    23 1   
    46    22    44 1   
    47    23    24 1   
    48    23    45 1   
    49    24    25 1   
    50    24    46 1   
    51    25    47 1   
    52    26    27 1   
    53    26    48 1   
    54    27    28 2   
    55    28    29 1   
@<TRIPOS>SUBSTRUCTURE
     1 4EW         1 TEMP              0 ****  ****    0 ROOT
