@<TRIPOS>MOLECULE
4EZ
   43    44     1     0     0
SMALL
abcg2


@<TRIPOS>ATOM
      1 C1           0.6180     2.0410    -0.6750 c3         1 4EZ       0.433800
      2 N1           0.7870     1.0930     0.3800 n3         1 4EZ      -0.763600
      3 C11          2.1430     0.9580     0.8790 c3         1 4EZ       0.207800
      4 C12          3.0750     0.2720    -0.1100 c3         1 4EZ      -0.083400
      5 C13          4.4710     0.0720     0.4670 c3         1 4EZ      -0.075400
      6 C15          6.7940    -0.9050     0.1310 c3         1 4EZ      -0.075400
      7 C16          7.7220    -1.6800    -0.7930 c3         1 4EZ      -0.088100
      8 C10         -0.2190     1.1800     1.4270 c3         1 4EZ       0.284000
      9 C9          -1.6010     0.9800     0.9090 cc         1 4EZ      -0.259000
     10 C4          -2.1710    -0.2440     0.4580 ca         1 4EZ       0.151800
     11 N3          -1.6470    -1.4850     0.4190 nb         1 4EZ      -0.149000
     12 C8          -2.5830     1.9250     0.7560 cd         1 4EZ      -0.146100
     13 N7          -3.7100     1.3630     0.2410 na         1 4EZ      -0.203700
     14 C5          -3.4820     0.0300     0.0520 ca         1 4EZ      -0.217200
     15 C6          -4.2720    -1.0270    -0.4270 ca         1 4EZ       0.383900
     16 N6          -5.5570    -0.8780    -0.8100 nv         1 4EZ      -1.073900
     17 N2          -3.7300    -2.2410    -0.4620 nb         1 4EZ      -0.270000
     18 C2          -2.4710    -2.3970    -0.0380 ca         1 4EZ       0.135900
     19 O1           0.0620     1.3990    -1.8020 oh         1 4EZ      -0.651000
     20 C14          5.4120    -0.6740    -0.4700 c3         1 4EZ      -0.074400
     21 H1          -0.0280     2.8730    -0.3560 h2         1 4EZ       0.001700
     22 H2           1.5900     2.4850    -0.9280 h2         1 4EZ       0.001700
     23 H4           2.5780     1.9230     1.1880 h1         1 4EZ       0.024700
     24 H5           2.1020     0.3470     1.7840 h1         1 4EZ       0.024700
     25 H6           2.6410    -0.6940    -0.3840 hc         1 4EZ       0.053200
     26 H7           3.1470     0.8530    -1.0360 hc         1 4EZ       0.053200
     27 H8           4.9070     1.0440     0.7230 hc         1 4EZ       0.033700
     28 H9           4.3950    -0.4810     1.4110 hc         1 4EZ       0.033700
     29 H10          6.6870    -1.4440     1.0770 hc         1 4EZ       0.035200
     30 H11          7.2460     0.0590     0.3830 hc         1 4EZ       0.035200
     31 H12          8.6970    -1.8490    -0.3320 hc         1 4EZ       0.030700
     32 H13          7.3020    -2.6560    -1.0440 hc         1 4EZ       0.030700
     33 H14          7.8890    -1.1440    -1.7290 hc         1 4EZ       0.030700
     34 H15         -0.0020     0.4000     2.1600 h1         1 4EZ       0.034200
     35 H16         -0.1730     2.1380     1.9710 h1         1 4EZ       0.034200
     36 H17         -2.5550     2.9790     0.9820 h4         1 4EZ       0.210000
     37 H18         -4.5630     1.8640     0.0590 hn         1 4EZ       0.348000
     38 H19         -5.9150     0.0330    -1.0380 hn         1 4EZ       0.480000
     39 H20         -5.9880    -1.6460    -1.2970 hn         1 4EZ       0.480000
     40 H21         -2.0940    -3.4140    -0.0860 h5         1 4EZ       0.043100
     41 H22         -0.1500     2.0780    -2.4510 ho         1 4EZ       0.434000
     42 H23          4.9670    -1.6390    -0.7360 hc         1 4EZ       0.039200
     43 H24          5.5110    -0.1190    -1.4090 hc         1 4EZ       0.039200
@<TRIPOS>BOND
     1     1     2 1   
     2     1    19 1   
     3     1    21 1   
     4     1    22 1   
     5     2     3 1   
     6     2     8 1   
     7     3     4 1   
     8     3    23 1   
     9     3    24 1   
    10     4     5 1   
    11     4    25 1   
    12     4    26 1   
    13     5    20 1   
    14     5    27 1   
    15     5    28 1   
    16     6     7 1   
    17     6    20 1   
    18     6    29 1   
    19     6    30 1   
    20     7    31 1   
    21     7    32 1   
    22     7    33 1   
    23     8     9 1   
    24     8    34 1   
    25     8    35 1   
    26     9    10 1   
    27     9    12 2   
    28    10    11 ar  
    29    10    14 ar  
    30    11    18 ar  
    31    12    13 1   
    32    12    36 1   
    33    13    14 1   
    34    13    37 1   
    35    14    15 ar  
    36    15    16 1   
    37    15    17 ar  
    38    16    38 1   
    39    16    39 1   
    40    17    18 ar  
    41    18    40 1   
    42    19    41 1   
    43    20    42 1   
    44    20    43 1   
@<TRIPOS>SUBSTRUCTURE
     1 4EZ         1 TEMP              0 ****  ****    0 ROOT
