@<TRIPOS>MOLECULE
4EZ
   43    44     1     0     0
SMALL
No Charge or Current Charge


@<TRIPOS>ATOM
      1 C1           0.5920     1.9000    -0.8380 c3         1 4EZ       0.433800
      2 N1           0.7080     0.8750     0.2110 n3         1 4EZ      -0.763600
      3 C11          2.0830     0.7180     0.7620 c3         1 4EZ       0.207800
      4 C12          3.1740     0.2310    -0.2220 c3         1 4EZ      -0.083400
      5 C13          4.5080    -0.1080     0.4810 c3         1 4EZ      -0.075400
      6 C15          6.9350    -0.9280     0.2070 c3         1 4EZ      -0.075400
      7 C16          8.0270    -1.4090    -0.7680 c3         1 4EZ      -0.088100
      8 C10         -0.2670     1.1000     1.3030 c3         1 4EZ       0.284000
      9 C9          -1.7020     0.9850     0.8560 cc         1 4EZ      -0.259000
     10 C4          -2.3910    -0.2250     0.5170 ca         1 4EZ       0.151800
     11 N3          -1.9250    -1.4870     0.5280 nb         1 4EZ      -0.149000
     12 C8          -2.6350     2.0130     0.7060 cd         1 4EZ      -0.146100
     13 N7          -3.8750     1.4760     0.2760 na         1 4EZ      -0.203700
     14 C5          -3.6710     0.1050     0.1780 ca         1 4EZ      -0.217200
     15 C6          -4.5460    -0.9280    -0.1880 ca         1 4EZ       0.383900
     16 N6          -5.8400    -0.7170    -0.5530 nv         1 4EZ      -1.073900
     17 N2          -4.1270    -2.2070    -0.1980 nb         1 4EZ      -0.270000
     18 C2          -2.8340    -2.4240     0.1620 ca         1 4EZ       0.135900
     19 O1           0.9990     1.3190    -2.0650 oh         1 4EZ      -0.651000
     20 C14          5.6030    -0.5890    -0.4970 c3         1 4EZ      -0.074400
     21 H1          -0.4480     2.2250    -0.9540 h2         1 4EZ       0.001700
     22 H2           1.2180     2.7690    -0.6040 h2         1 4EZ       0.001700
     23 H4           2.4160     1.6680     1.2040 h1         1 4EZ       0.024700
     24 H5           2.0500    -0.0130     1.5810 h1         1 4EZ       0.024700
     25 H6           2.8090    -0.6590    -0.7500 hc         1 4EZ       0.053200
     26 H7           3.3640     1.0050    -0.9740 hc         1 4EZ       0.053200
     27 H8           4.8680     0.7800     1.0160 hc         1 4EZ       0.033700
     28 H9           4.3310    -0.8860     1.2340 hc         1 4EZ       0.033700
     29 H10          6.7610    -1.7080     0.9590 hc         1 4EZ       0.035200
     30 H11          7.3000    -0.0430     0.7420 hc         1 4EZ       0.035200
     31 H12          8.9520    -1.6370    -0.2240 hc         1 4EZ       0.030700
     32 H13          7.7060    -2.3160    -1.2940 hc         1 4EZ       0.030700
     33 H14          8.2500    -0.6360    -1.5130 hc         1 4EZ       0.030700
     34 H15         -0.1130     0.3610     2.1020 h1         1 4EZ       0.034200
     35 H16         -0.1120     2.0910     1.7520 h1         1 4EZ       0.034200
     36 H17         -2.5070     3.0800     0.8740 h4         1 4EZ       0.210000
     37 H18         -4.7340     1.9900     0.1000 hn         1 4EZ       0.348000
     38 H19         -6.1280     0.2200    -0.8200 hn         1 4EZ       0.480000
     39 H20         -6.3510    -1.4870    -0.9790 hn         1 4EZ       0.480000
     40 H21         -2.4930    -3.4580     0.1570 h5         1 4EZ       0.043100
     41 H22          0.8550     2.0120    -2.7410 ho         1 4EZ       0.434000
     42 H23          5.2420    -1.4770    -1.0320 hc         1 4EZ       0.039200
     43 H24          5.7810     0.1890    -1.2500 hc         1 4EZ       0.039200
@<TRIPOS>BOND
     1     1     2 1   
     2     1    19 1   
     3     1    21 1   
     4     1    22 1   
     5     2     3 1   
     6     2     8 1   
     7     3     4 1   
     8     3    23 1   
     9     3    24 1   
    10     4     5 1   
    11     4    25 1   
    12     4    26 1   
    13     5    20 1   
    14     5    27 1   
    15     5    28 1   
    16     6     7 1   
    17     6    20 1   
    18     6    29 1   
    19     6    30 1   
    20     7    31 1   
    21     7    32 1   
    22     7    33 1   
    23     8     9 1   
    24     8    34 1   
    25     8    35 1   
    26     9    10 1   
    27     9    12 2   
    28    10    11 ar  
    29    10    14 ar  
    30    11    18 ar  
    31    12    13 1   
    32    12    36 1   
    33    13    14 1   
    34    13    37 1   
    35    14    15 ar  
    36    15    16 1   
    37    15    17 ar  
    38    16    38 1   
    39    16    39 1   
    40    17    18 ar  
    41    18    40 1   
    42    19    41 1   
    43    20    42 1   
    44    20    43 1   
@<TRIPOS>SUBSTRUCTURE
     1 4EZ         1 TEMP              0 ****  ****    0 ROOT
