@<TRIPOS>MOLECULE
4F0
   39    41     1     0     0
SMALL
bcc


@<TRIPOS>ATOM
      1 C2           3.2120    -2.1670     0.6490 ca         1 4F0       0.660900
      2 C4           2.4660    -0.3200    -0.3540 ca         1 4F0       0.469100
      3 C5           3.6770     0.3210    -0.0640 ca         1 4F0      -0.349800
      4 C6           4.6690    -0.3930     0.6240 ca         1 4F0       0.710200
      5 CS5         -6.1080    -2.0980     0.5030 c3         1 4F0      -0.005000
      6 S           -5.1470    -0.9760    -0.5350 ss         1 4F0      -0.350200
      7 C12         -3.9670    -0.3460     0.6920 c3         1 4F0       0.027700
      8 C11         -3.0170     0.6440     0.0400 c5         1 4F0      -0.060700
      9 C1          -2.0520     0.0260    -0.9890 c5         1 4F0       0.168800
     10 N1          -0.7150     0.3810    -0.5280 n3         1 4F0      -0.718600
     11 C9           1.6560     0.6070    -1.0700 cc         1 4F0      -0.263000
     12 C8           2.4040     1.7520    -1.1710 cd         1 4F0      -0.093100
     13 N7           3.6130     1.5870    -0.5730 na         1 4F0      -0.153400
     14 N6           5.8570     0.1410     0.9790 nv         1 4F0      -0.956500
     15 N2           4.4010    -1.6480     0.9720 nb         1 4F0      -0.793000
     16 N3           2.2210    -1.5950     0.0070 nb         1 4F0      -0.679000
     17 C7          -0.8470     1.6110     0.2180 c5         1 4F0       0.131800
     18 C3          -2.0910     1.3270     1.0520 c5         1 4F0       0.139100
     19 O3          -2.7170     2.4530     1.6080 oh         1 4F0      -0.591800
     20 H1           3.0590    -3.1960     0.9600 h5         1 4F0       0.045100
     21 H2          -6.6010    -1.5600     1.3110 h1         1 4F0       0.058700
     22 H3          -6.8690    -2.5590    -0.1240 h1         1 4F0       0.058700
     23 H4          -5.4810    -2.8840     0.9220 h1         1 4F0       0.058700
     24 H5          -4.5210     0.1370     1.5010 h1         1 4F0       0.064200
     25 H6          -3.4080    -1.1840     1.1170 h1         1 4F0       0.064200
     26 H7          -3.6040     1.4300    -0.4450 hc         1 4F0       0.076700
     27 H8          -2.1560    -1.0610    -1.0610 h1         1 4F0       0.048200
     28 H9          -2.2610     0.4300    -1.9900 h1         1 4F0       0.048200
     29 H11          0.2260    -0.5820    -2.0900 h1         1 4F0       0.038700
     30 H12          0.0480     1.1470    -2.3490 h1         1 4F0       0.038700
     31 H13          2.1500     2.6920    -1.6380 h4         1 4F0       0.165000
     32 H14          4.3210     2.3000    -0.5130 hn         1 4F0       0.299700
     33 H15          6.1970     0.9620     0.5080 hn         1 4F0       0.423800
     34 H16          6.5720    -0.4990     1.2870 hn         1 4F0       0.423800
     35 H17          0.0390     1.8070     0.8250 h1         1 4F0       0.040700
     36 H18         -1.0180     2.4930    -0.4240 h1         1 4F0       0.040700
     37 H19         -1.8170     0.6040     1.8340 h1         1 4F0       0.047700
     38 H20         -2.1860     2.7600     2.3490 ho         1 4F0       0.405000
     39 C10          0.2740     0.3870    -1.5820 c3         1 4F0       0.261000
@<TRIPOS>BOND
     1     1    15 ar  
     2     1    16 ar  
     3     1    20 1   
     4     2     3 ar  
     5     2    11 1   
     6     2    16 ar  
     7     3     4 ar  
     8     3    13 1   
     9     4    14 1   
    10     4    15 ar  
    11     5     6 1   
    12     5    21 1   
    13     5    22 1   
    14     5    23 1   
    15     6     7 1   
    16     7     8 1   
    17     7    24 1   
    18     7    25 1   
    19     8     9 1   
    20     8    18 1   
    21     8    26 1   
    22     9    10 1   
    23     9    27 1   
    24     9    28 1   
    25    10    17 1   
    26    10    39 1   
    27    11    12 2   
    28    11    39 1   
    29    12    13 1   
    30    12    31 1   
    31    13    32 1   
    32    14    33 1   
    33    14    34 1   
    34    17    18 1   
    35    17    35 1   
    36    17    36 1   
    37    18    19 1   
    38    18    37 1   
    39    19    38 1   
    40    29    39 1   
    41    30    39 1   
@<TRIPOS>SUBSTRUCTURE
     1 4F0         1 TEMP              0 ****  ****    0 ROOT
