@<TRIPOS>MOLECULE
4F0
   39    41     1     0     0
SMALL
No Charge or Current Charge


@<TRIPOS>ATOM
      1 C2           3.2850    -2.2220     0.6080 ca         1 4F0       0.134900
      2 C4           2.5340    -0.3190    -0.3750 ca         1 4F0       0.140800
      3 C5           3.6920     0.3260    -0.0520 ca         1 4F0      -0.219200
      4 C6           4.6760    -0.3900     0.6440 ca         1 4F0       0.381900
      5 CS5         -6.2260    -2.1350     0.5390 c3         1 4F0       0.042900
      6 S           -5.2300    -1.0250    -0.5560 ss         1 4F0      -0.446000
      7 C12         -4.0410    -0.3370     0.6870 c3         1 4F0       0.075600
      8 C11         -3.0400     0.6510     0.0520 c5         1 4F0      -0.060700
      9 C1          -2.0920     0.0280    -1.0280 c5         1 4F0       0.168800
     10 N1          -0.7210     0.3890    -0.5820 n3         1 4F0      -0.718600
     11 C9           1.6960     0.6100    -1.0750 cc         1 4F0      -0.263000
     12 C8           2.4140     1.8050    -1.1360 cd         1 4F0      -0.143100
     13 N7           3.6690     1.6430    -0.4950 na         1 4F0      -0.203700
     14 N6           5.8710     0.1470     1.0120 nv         1 4F0      -1.066900
     15 N2           4.4740    -1.6770     0.9800 nb         1 4F0      -0.267000
     16 N3           2.2830    -1.6040    -0.0650 nb         1 4F0      -0.153000
     17 C7          -0.8850     1.6750     0.1290 c5         1 4F0       0.131800
     18 C3          -2.0570     1.2970     1.0740 c5         1 4F0       0.162300
     19 O3          -2.6350     2.4230     1.7440 oh         1 4F0      -0.654000
     20 H1           3.1190    -3.2630     0.8780 h5         1 4F0       0.045100
     21 H2          -6.7050    -1.5460     1.3320 h1         1 4F0       0.058700
     22 H3          -7.0020    -2.6390    -0.0510 h1         1 4F0       0.058700
     23 H4          -5.5750    -2.8920     0.9960 h1         1 4F0       0.058700
     24 H5          -4.6100     0.1800     1.4710 h1         1 4F0       0.064200
     25 H6          -3.4910    -1.1640     1.1540 h1         1 4F0       0.064200
     26 H7          -3.6430     1.4350    -0.4200 hc         1 4F0       0.076700
     27 H8          -2.2080    -1.0620    -1.1050 h1         1 4F0       0.048200
     28 H9          -2.3180     0.4530    -2.0170 h1         1 4F0       0.048200
     29 H11          0.3280    -0.6600    -2.0930 h1         1 4F0       0.038700
     30 H12          0.1030     1.0640    -2.4170 h1         1 4F0       0.038700
     31 H13          2.1230     2.7540    -1.5830 h4         1 4F0       0.215000
     32 H14          4.3890     2.3510    -0.3760 hn         1 4F0       0.350000
     33 H15          6.1820     1.0040     0.5640 hn         1 4F0       0.479000
     34 H16          6.6000    -0.4810     1.3450 hn         1 4F0       0.479000
     35 H17          0.0170     1.9600     0.6880 h1         1 4F0       0.040700
     36 H18         -1.1510     2.4940    -0.5550 h1         1 4F0       0.040700
     37 H19         -1.7180     0.5500     1.8070 h1         1 4F0       0.047700
     38 H20         -1.9500     2.7710     2.3570 ho         1 4F0       0.444000
     39 C10          0.3220     0.3340    -1.6240 c3         1 4F0       0.261000
@<TRIPOS>BOND
     1     1    15 ar  
     2     1    16 ar  
     3     1    20 1   
     4     2     3 ar  
     5     2    11 1   
     6     2    16 ar  
     7     3     4 ar  
     8     3    13 1   
     9     4    14 1   
    10     4    15 ar  
    11     5     6 1   
    12     5    21 1   
    13     5    22 1   
    14     5    23 1   
    15     6     7 1   
    16     7     8 1   
    17     7    24 1   
    18     7    25 1   
    19     8     9 1   
    20     8    18 1   
    21     8    26 1   
    22     9    10 1   
    23     9    27 1   
    24     9    28 1   
    25    10    17 1   
    26    10    39 1   
    27    11    12 2   
    28    11    39 1   
    29    12    13 1   
    30    12    31 1   
    31    13    32 1   
    32    14    33 1   
    33    14    34 1   
    34    17    18 1   
    35    17    35 1   
    36    17    36 1   
    37    18    19 1   
    38    18    37 1   
    39    19    38 1   
    40    29    39 1   
    41    30    39 1   
@<TRIPOS>SUBSTRUCTURE
     1 4F0         1 TEMP              0 ****  ****    0 ROOT
