@<TRIPOS>MOLECULE
4F1
   42    45     1     0     0
SMALL
abcg2


@<TRIPOS>ATOM
      1 N1          -1.0470     1.2100    -0.0260 n          1 4F1       0.054600
      2 C4           3.6470    -1.7390     0.5310 ca         1 4F1      -0.097500
      3 C5           2.4440    -1.0540     0.5510 ca         1 4F1      -0.107500
      4 C6           2.3510     0.2240    -0.0000 ca         1 4F1      -0.167900
      5 C7           1.0750     0.9390     0.0110 cc         1 4F1       0.487500
      6 C8          -2.3520     0.8020    -0.1440 c          1 4F1       0.650700
      7 C10         -2.3750    -1.1000    -1.7450 ca         1 4F1       0.148000
      8 C13         -3.2150    -2.8880     0.1820 ca         1 4F1      -0.069000
      9 C17         -1.1820     3.7290     0.2560 ca         1 4F1      -0.112000
     10 C20          1.6490     3.4740     0.3440 ca         1 4F1      -0.031000
     11 C21          0.8380     2.3540     0.1590 ca         1 4F1      -0.205900
     12 O2          -3.2800     1.5650    -0.0460 o          1 4F1      -0.538100
     13 C9          -2.5390    -0.6570    -0.4400 ca         1 4F1      -0.055600
     14 C14         -2.9680    -1.5660     0.5260 ca         1 4F1      -0.151300
     15 F2          -3.1620    -2.1330     2.8030 f          1 4F1      -0.107667
     16 F1          -2.2530    -0.2420     2.3360 f          1 4F1      -0.107667
     17 F           -4.3720    -0.5090     2.0860 f          1 4F1      -0.107667
     18 C12         -3.0430    -3.3060    -1.1280 ca         1 4F1      -0.098000
     19 C11         -2.6230    -2.4150    -2.1000 ca         1 4F1      -0.077000
     20 N           -0.0490     0.2960    -0.0930 nd         1 4F1      -0.478300
     21 C16         -0.5540     2.4930     0.1290 ca         1 4F1      -0.071000
     22 C19          1.0380     4.7050     0.4700 ca         1 4F1      -0.150000
     23 C18         -0.3570     4.8260     0.4200 ca         1 4F1      -0.088000
     24 C3           3.4870     0.7920    -0.5760 ca         1 4F1      -0.107500
     25 C2           4.6850     0.0970    -0.5960 ca         1 4F1      -0.097500
     26 C1           4.7860    -1.1750    -0.0410 ca         1 4F1      -0.110600
     27 C            6.1080    -1.9350    -0.0620 c          1 4F1       0.710600
     28 O            7.0740    -1.3530    -0.5900 o          1 4F1      -0.715500
     29 O1           6.1040    -3.0710     0.4490 o          1 4F1      -0.715500
     30 H1           3.7070    -2.7260     0.9710 ha         1 4F1       0.131500
     31 H2           1.5730    -1.5050     1.0090 ha         1 4F1       0.096000
     32 H3          -3.5410    -3.6020     0.9240 ha         1 4F1       0.133000
     33 H4          -2.2550     3.8400     0.2350 ha         1 4F1       0.138000
     34 H5           2.7260     3.3870     0.3970 ha         1 4F1       0.133000
     35 H6          -3.2370    -4.3360    -1.3930 ha         1 4F1       0.123000
     36 H7          -2.4880    -2.7370    -3.1240 ha         1 4F1       0.135000
     37 H8           1.6430     5.5900     0.6150 ha         1 4F1       0.110000
     38 H9          -0.8040     5.8060     0.5230 ha         1 4F1       0.106000
     39 H10          3.4320     1.7680    -1.0420 ha         1 4F1       0.096000
     40 H11          5.5550     0.5480    -1.0540 ha         1 4F1       0.131500
     41 C15         -3.1880    -1.1160     1.9410 c3         1 4F1       0.356300
     42 CL          -1.8530     0.0170    -2.9550 cl         1 4F1      -0.170000
@<TRIPOS>BOND
     1     1     6 1   
     2     1    20 1   
     3     1    21 1   
     4     2     3 ar  
     5     2    26 ar  
     6     2    30 1   
     7     3     4 ar  
     8     3    31 1   
     9     4     5 1   
    10     4    24 ar  
    11     5    11 1   
    12     5    20 2   
    13     6    12 2   
    14     6    13 1   
    15     7    13 ar  
    16     7    19 ar  
    17     7    42 1   
    18     8    14 ar  
    19     8    18 ar  
    20     8    32 1   
    21     9    21 ar  
    22     9    23 ar  
    23     9    33 1   
    24    10    11 ar  
    25    10    22 ar  
    26    10    34 1   
    27    11    21 ar  
    28    13    14 ar  
    29    14    41 1   
    30    15    41 1   
    31    16    41 1   
    32    17    41 1   
    33    18    19 ar  
    34    18    35 1   
    35    19    36 1   
    36    22    23 ar  
    37    22    37 1   
    38    23    38 1   
    39    24    25 ar  
    40    24    39 1   
    41    25    26 ar  
    42    25    40 1   
    43    26    27 1   
    44    27    28 1   
    45    27    29 1   
@<TRIPOS>SUBSTRUCTURE
     1 4F1         1 TEMP              0 ****  ****    0 ROOT
