@<TRIPOS>MOLECULE
4F1
   42    45     1     0     0
SMALL
No Charge or Current Charge


@<TRIPOS>ATOM
      1 N1          -1.0260     1.0720    -0.0970 n          1 4F1       0.054600
      2 C4           3.9680    -1.6680     0.4860 ca         1 4F1      -0.097500
      3 C5           2.7050    -1.0530     0.5330 ca         1 4F1      -0.107500
      4 C6           2.5100     0.2390     0.0020 ca         1 4F1      -0.167900
      5 C7           1.1740     0.8500     0.0130 cc         1 4F1       0.487500
      6 C8          -2.4150     0.7570    -0.2150 c          1 4F1       0.650700
      7 C10         -2.4630    -1.2270    -1.7530 ca         1 4F1       0.148000
      8 C13         -3.6160    -2.8690     0.2120 ca         1 4F1      -0.069000
      9 C17         -1.0920     3.6330     0.2640 ca         1 4F1      -0.112000
     10 C20          1.7270     3.3480     0.4730 ca         1 4F1      -0.031000
     11 C21          0.8920     2.2540     0.1900 ca         1 4F1      -0.205900
     12 O2          -3.3110     1.5940    -0.1350 o          1 4F1      -0.538100
     13 C9          -2.7390    -0.6920    -0.4750 ca         1 4F1      -0.055600
     14 C14         -3.3240    -1.5200     0.5280 ca         1 4F1      -0.151300
     15 F2          -3.9510    -1.9520     2.8200 f          1 4F1      -0.107667
     16 F1          -2.5750    -0.3210     2.4710 f          1 4F1      -0.107667
     17 F           -4.6710    -0.1150     1.9240 f          1 4F1      -0.107667
     18 C12         -3.3300    -3.3880    -1.0600 ca         1 4F1      -0.098000
     19 C11         -2.7550    -2.5680    -2.0410 ca         1 4F1      -0.077000
     20 N            0.0490     0.1460    -0.1280 nd         1 4F1      -0.478300
     21 C16         -0.4700     2.3790     0.1120 ca         1 4F1      -0.071000
     22 C19          1.1250     4.6130     0.6250 ca         1 4F1      -0.150000
     23 C18         -0.2770     4.7570     0.5140 ca         1 4F1      -0.088000
     24 C3           3.5970     0.8750    -0.6330 ca         1 4F1      -0.107500
     25 C2           4.8600     0.2620    -0.6820 ca         1 4F1      -0.097500
     26 C1           5.0690    -1.0170    -0.1160 ca         1 4F1      -0.110600
     27 C            6.4370    -1.6820    -0.1690 c          1 4F1       0.710600
     28 O            7.3600    -1.0830    -0.7050 o          1 4F1      -0.715500
     29 O1           6.5690    -2.7930     0.3270 o          1 4F1      -0.715500
     30 H1           4.0870    -2.6590     0.9190 ha         1 4F1       0.131500
     31 H2           1.8760    -1.5820     0.9990 ha         1 4F1       0.096000
     32 H3          -4.0670    -3.5300     0.9500 ha         1 4F1       0.133000
     33 H4          -2.1700     3.7540     0.2030 ha         1 4F1       0.138000
     34 H5           2.8030     3.2340     0.5850 ha         1 4F1       0.133000
     35 H6          -3.5600    -4.4270    -1.2870 ha         1 4F1       0.123000
     36 H7          -2.5440    -2.9690    -3.0290 ha         1 4F1       0.135000
     37 H8           1.7430     5.4830     0.8370 ha         1 4F1       0.110000
     38 H9          -0.7310     5.7370     0.6370 ha         1 4F1       0.106000
     39 H10          3.4640     1.8430    -1.1110 ha         1 4F1       0.096000
     40 H11          5.6790     0.7830    -1.1740 ha         1 4F1       0.131500
     41 C15         -3.6310    -0.9780     1.9380 c3         1 4F1       0.356300
     42 Cl          -1.7910    -0.2240    -3.0400 cl         1 4F1      -0.170000
@<TRIPOS>BOND
     1     1     6 1   
     2     1    20 1   
     3     1    21 1   
     4     2     3 ar  
     5     2    26 ar  
     6     2    30 1   
     7     3     4 ar  
     8     3    31 1   
     9     4     5 1   
    10     4    24 ar  
    11     5    11 1   
    12     5    20 2   
    13     6    12 2   
    14     6    13 1   
    15     7    13 ar  
    16     7    19 ar  
    17     7    42 1   
    18     8    14 ar  
    19     8    18 ar  
    20     8    32 1   
    21     9    21 ar  
    22     9    23 ar  
    23     9    33 1   
    24    10    11 ar  
    25    10    22 ar  
    26    10    34 1   
    27    11    21 ar  
    28    13    14 ar  
    29    14    41 1   
    30    15    41 1   
    31    16    41 1   
    32    17    41 1   
    33    18    19 ar  
    34    18    35 1   
    35    19    36 1   
    36    22    23 ar  
    37    22    37 1   
    38    23    38 1   
    39    24    25 ar  
    40    24    39 1   
    41    25    26 ar  
    42    25    40 1   
    43    26    27 1   
    44    27    28 1   
    45    27    29 1   
@<TRIPOS>SUBSTRUCTURE
     1 4F1         1 TEMP              0 ****  ****    0 ROOT
