@<TRIPOS>MOLECULE
4F2
   62    65     1     0     0
SMALL
No Charge or Current Charge


@<TRIPOS>ATOM
      1 C10         -1.9530     0.8610    -1.0800 c6         1 4F2      -0.089900
      2 C11         -1.1140    -0.3090    -0.5070 c6         1 4F2       0.243500
      3 C12         -1.6250    -0.6980     0.9060 c6         1 4F2      -0.089900
      4 C13         -3.1370    -1.0410     0.8810 c6         1 4F2      -0.089400
      5 C18          3.5600    -2.3040    -0.1500 ca         1 4F2      -0.306800
      6 C19          4.7230    -3.1640    -0.0530 cc         1 4F2      -0.049200
      7 C20          5.9290    -2.5280     0.1160 cd         1 4F2      -0.317200
      8 C21          6.1190    -1.0670     0.2170 c          1 4F2       0.566200
      9 C24          5.0270     1.2370     0.2690 c5         1 4F2       0.094700
     10 C25          5.7810     1.8240    -0.9610 c5         1 4F2      -0.081400
     11 C26          6.3280     3.1360    -0.3460 c5         1 4F2      -0.077900
     12 C28          5.8200     1.6880     1.5450 c5         1 4F2      -0.081400
     13 C29          3.6630    -0.9060    -0.0520 ca         1 4F2       0.318900
     14 C15          1.3920    -0.7510    -0.3430 ca         1 4F2       0.429900
     15 C01         -9.2950     1.1300    -1.2680 c3         1 4F2      -0.110600
     16 C02         -8.9450     0.6920     0.1680 c3         1 4F2       0.126700
     17 C03        -10.0340    -0.2040     0.7860 c3         1 4F2      -0.110600
     18 N04         -7.6530     0.0100     0.2000 ns         1 4F2      -0.523900
     19 O06         -6.3100     1.8510     0.3420 o          1 4F2      -0.646100
     20 N07         -5.3940    -0.2370     0.2700 ns         1 4F2      -0.518900
     21 C08         -3.9760     0.1350     0.3180 c6         1 4F2       0.118700
     22 C09         -3.4640     0.5120    -1.0980 c6         1 4F2      -0.089400
     23 N14          0.3000     0.0960    -0.4410 nu         1 4F2      -0.909100
     24 N16          1.1880    -2.0750    -0.4470 nb         1 4F2      -0.261000
     25 C17          2.2800    -2.8510    -0.3490 ca         1 4F2       0.200900
     26 O22          7.2470    -0.6140     0.3480 o          1 4F2      -0.536000
     27 N23          4.9410    -0.2710     0.1460 n          1 4F2      -0.359300
     28 C27          6.9510     2.5990     0.9720 c5         1 4F2      -0.077900
     29 N30          2.5630    -0.1310    -0.1550 nb         1 4F2      -0.321000
     30 H101        -1.7960     1.7680    -0.4800 hc         1 4F2       0.052950
     31 H102        -1.6180     1.0960    -2.0990 hc         1 4F2       0.052950
     32 H111        -1.2360    -1.1710    -1.1830 h1         1 4F2       0.079700
     33 H121        -1.0610    -1.5600     1.2870 hc         1 4F2       0.052950
     34 H122        -1.4470     0.1270     1.6090 hc         1 4F2       0.052950
     35 H131        -3.2990    -1.9430     0.2740 hc         1 4F2       0.049700
     36 H132        -3.4740    -1.2840     1.8980 hc         1 4F2       0.049700
     37 H191         4.6630    -4.2500    -0.1200 ha         1 4F2       0.187000
     38 H201         6.8510    -3.0940     0.1850 ha         1 4F2       0.210000
     39 H241         4.0380     1.7090     0.3220 h1         1 4F2       0.084700
     40 H252         6.5960     1.1900    -1.3260 hc         1 4F2       0.052700
     41 H251         5.1090     2.0050    -1.8080 hc         1 4F2       0.052700
     42 H262         7.0700     3.6220    -0.9900 hc         1 4F2       0.046450
     43 H261         5.5300     3.8640    -0.1540 hc         1 4F2       0.046450
     44 H281         5.1620     2.2640     2.2050 hc         1 4F2       0.052700
     45 H282         6.2110     0.8680     2.1550 hc         1 4F2       0.052700
     46 H013        -9.3750     0.2610    -1.9320 hc         1 4F2       0.041033
     47 H012       -10.2510     1.6670    -1.2850 hc         1 4F2       0.041033
     48 H011        -8.5240     1.7990    -1.6680 hc         1 4F2       0.041033
     49 H021        -8.8710     1.5970     0.7890 h1         1 4F2       0.078700
     50 H033       -10.1560    -1.1280     0.2070 hc         1 4F2       0.041033
     51 H031        -9.7740    -0.4730     1.8160 hc         1 4F2       0.041033
     52 H032       -10.9980     0.3180     0.8050 hc         1 4F2       0.041033
     53 H041        -7.6440    -1.0000     0.1510 hn         1 4F2       0.299500
     54 H071        -5.6250    -1.2190     0.2160 hn         1 4F2       0.296500
     55 H081        -3.8630     1.0040     0.9850 h1         1 4F2       0.084700
     56 H091        -4.0320     1.3690    -1.4840 hc         1 4F2       0.049700
     57 H092        -3.6430    -0.3190    -1.7940 hc         1 4F2       0.049700
     58 H141         0.5200     1.0870    -0.3490 hn         1 4F2       0.505000
     59 H171         2.1260    -3.9260    -0.4330 h4         1 4F2       0.022100
     60 H271         7.8640     2.0250     0.7730 hc         1 4F2       0.046450
     61 H272         7.2240     3.4040     1.6630 hc         1 4F2       0.046450
     62 C05         -6.4420     0.6410     0.2750 c          1 4F2       0.650100
@<TRIPOS>BOND
     1     1     2 1   
     2     1    22 1   
     3     1    30 1   
     4     1    31 1   
     5     2     3 1   
     6     2    23 1   
     7     2    32 1   
     8     3     4 1   
     9     3    33 1   
    10     3    34 1   
    11     4    21 1   
    12     4    35 1   
    13     4    36 1   
    14     5     6 1   
    15     5    13 ar  
    16     5    25 ar  
    17     6     7 2   
    18     6    37 1   
    19     7     8 1   
    20     7    38 1   
    21     8    26 2   
    22     8    27 1   
    23     9    10 1   
    24     9    12 1   
    25     9    27 1   
    26     9    39 1   
    27    10    11 1   
    28    10    40 1   
    29    10    41 1   
    30    11    28 1   
    31    11    42 1   
    32    11    43 1   
    33    12    28 1   
    34    12    44 1   
    35    12    45 1   
    36    13    27 1   
    37    13    29 ar  
    38    14    23 1   
    39    14    24 ar  
    40    14    29 ar  
    41    15    16 1   
    42    15    46 1   
    43    15    47 1   
    44    15    48 1   
    45    16    17 1   
    46    16    18 1   
    47    16    49 1   
    48    17    50 1   
    49    17    51 1   
    50    17    52 1   
    51    18    53 1   
    52    18    62 1   
    53    19    62 2   
    54    20    21 1   
    55    20    54 1   
    56    20    62 1   
    57    21    22 1   
    58    21    55 1   
    59    22    56 1   
    60    22    57 1   
    61    23    58 1   
    62    24    25 ar  
    63    25    59 1   
    64    28    60 1   
    65    28    61 1   
@<TRIPOS>SUBSTRUCTURE
     1 4F2         1 TEMP              0 ****  ****    0 ROOT
