@<TRIPOS>MOLECULE
4F2
   62    65     1     0     0
SMALL
abcg2


@<TRIPOS>ATOM
      1 C10         -1.9510     0.7610    -0.9290 c6         1 4F2      -0.089900
      2 C11         -1.0900    -0.3510    -0.3400 c6         1 4F2       0.243500
      3 C12         -1.5930    -0.7470     1.0480 c6         1 4F2      -0.089900
      4 C13         -3.0640    -1.1490     1.0160 c6         1 4F2      -0.089400
      5 C18          3.5220    -2.2970    -0.1500 ca         1 4F2      -0.306800
      6 C19          4.6970    -3.0910    -0.0870 cc         1 4F2      -0.049200
      7 C20          5.8950    -2.4960     0.0540 cd         1 4F2      -0.317200
      8 C21          6.0250    -1.0540     0.1420 c          1 4F2       0.566200
      9 C24          4.9430     1.1620     0.1600 c5         1 4F2       0.094700
     10 C25          5.6270     1.8160    -1.0510 c5         1 4F2      -0.081400
     11 C26          6.1620     3.1250    -0.4750 c5         1 4F2      -0.077900
     12 C28          5.6360     1.7300     1.4250 c5         1 4F2      -0.081400
     13 C29          3.6190    -0.8940    -0.0610 ca         1 4F2       0.318900
     14 C15          1.3590    -0.7240    -0.2540 ca         1 4F2       0.429900
     15 C01         -8.8930     1.3960    -1.2550 c3         1 4F2      -0.110600
     16 C02         -8.7620     0.7650     0.1280 c3         1 4F2       0.126700
     17 C03         -9.9770    -0.0880     0.4630 c3         1 4F2      -0.110600
     18 N04         -7.5680    -0.0510     0.2460 ns         1 4F2      -0.523900
     19 O06         -6.1520     1.6680     0.6830 o          1 4F2      -0.646100
     20 N07         -5.3150    -0.4300     0.4260 ns         1 4F2      -0.518900
     21 C08         -3.9240    -0.0310     0.4360 c6         1 4F2       0.118700
     22 C09         -3.4220     0.3630    -0.9540 c6         1 4F2      -0.089400
     23 N14          0.2920     0.0820    -0.3150 nu         1 4F2      -0.909100
     24 N16          1.1550    -2.0520    -0.3490 nb         1 4F2      -0.261000
     25 C17          2.2310    -2.8010    -0.2980 ca         1 4F2       0.200900
     26 O22          7.1090    -0.5020     0.2620 o          1 4F2      -0.536000
     27 N23          4.8510    -0.3030     0.0860 n          1 4F2      -0.359300
     28 C27          6.6890     2.7120     0.9000 c5         1 4F2      -0.077900
     29 N30          2.5460    -0.1280    -0.1160 nb         1 4F2      -0.321000
     30 H101        -1.8310     1.6700    -0.3270 hc         1 4F2       0.052950
     31 H102        -1.6090     1.0010    -1.9380 hc         1 4F2       0.052950
     32 H111        -1.1570    -1.2240    -0.9950 h1         1 4F2       0.079700
     33 H121        -0.9890    -1.5690     1.4380 hc         1 4F2       0.052950
     34 H122        -1.4570     0.1000     1.7300 hc         1 4F2       0.052950
     35 H131        -3.1800    -2.0540     0.4080 hc         1 4F2       0.049700
     36 H132        -3.4060    -1.3970     2.0230 hc         1 4F2       0.049700
     37 H191         4.6120    -4.1690    -0.1520 ha         1 4F2       0.187000
     38 H201         6.8120    -3.0670     0.1040 ha         1 4F2       0.210000
     39 H241         3.9120     1.4970     0.1720 h1         1 4F2       0.084700
     40 H252         6.4550     1.2130    -1.4200 hc         1 4F2       0.052700
     41 H251         4.9260     1.9580    -1.8750 hc         1 4F2       0.052700
     42 H262         6.9220     3.5860    -1.1060 hc         1 4F2       0.046450
     43 H261         5.3490     3.8480    -0.3620 hc         1 4F2       0.046450
     44 H281         4.8900     2.2600     2.0200 hc         1 4F2       0.052700
     45 H282         6.0630     0.9640     2.0680 hc         1 4F2       0.052700
     46 H013        -8.9850     0.6280    -2.0250 hc         1 4F2       0.041033
     47 H012        -9.7800     2.0300    -1.3070 hc         1 4F2       0.041033
     48 H011        -8.0260     2.0150    -1.4900 hc         1 4F2       0.041033
     49 H021        -8.6870     1.5630     0.8690 h1         1 4F2       0.078700
     50 H033       -10.0920    -0.9050    -0.2520 hc         1 4F2       0.041033
     51 H031        -9.8980    -0.5180     1.4620 hc         1 4F2       0.041033
     52 H032       -10.8850     0.5130     0.4260 hc         1 4F2       0.041033
     53 H041        -7.6420    -1.0100    -0.0580 hn         1 4F2       0.299500
     54 H071        -5.5130    -1.3620     0.0980 hn         1 4F2       0.296500
     55 H081        -3.8360     0.8380     1.0930 h1         1 4F2       0.084700
     56 H091        -4.0240     1.1890    -1.3410 hc         1 4F2       0.049700
     57 H092        -3.5650    -0.4810    -1.6370 hc         1 4F2       0.049700
     58 H141         0.4740     1.0620    -0.1570 hn         1 4F2       0.505000
     59 H171         2.0870    -3.8750    -0.3730 h4         1 4F2       0.022100
     60 H271         7.6490     2.2060     0.7880 hc         1 4F2       0.046450
     61 H272         6.8400     3.5600     1.5700 hc         1 4F2       0.046450
     62 C05         -6.3330     0.4750     0.4500 c          1 4F2       0.650100
@<TRIPOS>BOND
     1     1     2 1   
     2     1    22 1   
     3     1    30 1   
     4     1    31 1   
     5     2     3 1   
     6     2    23 1   
     7     2    32 1   
     8     3     4 1   
     9     3    33 1   
    10     3    34 1   
    11     4    21 1   
    12     4    35 1   
    13     4    36 1   
    14     5     6 1   
    15     5    13 ar  
    16     5    25 ar  
    17     6     7 2   
    18     6    37 1   
    19     7     8 1   
    20     7    38 1   
    21     8    26 2   
    22     8    27 1   
    23     9    10 1   
    24     9    12 1   
    25     9    27 1   
    26     9    39 1   
    27    10    11 1   
    28    10    40 1   
    29    10    41 1   
    30    11    28 1   
    31    11    42 1   
    32    11    43 1   
    33    12    28 1   
    34    12    44 1   
    35    12    45 1   
    36    13    27 1   
    37    13    29 ar  
    38    14    23 1   
    39    14    24 ar  
    40    14    29 ar  
    41    15    16 1   
    42    15    46 1   
    43    15    47 1   
    44    15    48 1   
    45    16    17 1   
    46    16    18 1   
    47    16    49 1   
    48    17    50 1   
    49    17    51 1   
    50    17    52 1   
    51    18    53 1   
    52    18    62 1   
    53    19    62 2   
    54    20    21 1   
    55    20    54 1   
    56    20    62 1   
    57    21    22 1   
    58    21    55 1   
    59    22    56 1   
    60    22    57 1   
    61    23    58 1   
    62    24    25 ar  
    63    25    59 1   
    64    28    60 1   
    65    28    61 1   
@<TRIPOS>SUBSTRUCTURE
     1 4F2         1 TEMP              0 ****  ****    0 ROOT
