@<TRIPOS>MOLECULE
4F3
   44    46     1     0     0
SMALL
abcg2


@<TRIPOS>ATOM
      1 C1          -4.5130     1.7580     2.0690 ca         1 4F3      -0.121800
      2 C2          -3.5150     0.8500     1.7160 ca         1 4F3       0.251000
      3 C3          -3.2590     0.5370     0.4040 ca         1 4F3      -0.221000
      4 C4          -4.0220     1.1330    -0.6150 ca         1 4F3      -0.077000
      5 C5          -5.0340     2.0250    -0.3310 ca         1 4F3      -0.160000
      6 C6          -5.2650     2.3250     1.0140 ca         1 4F3      -0.035200
      7 C7          -5.0250     2.2880     3.2980 cc         1 4F3      -0.075400
      8 C8          -6.0430     3.1250     2.9420 cd         1 4F3      -0.175100
      9 N9          -6.1850     3.1520     1.5820 na         1 4F3      -0.225700
     10 F10         -2.8100     0.2430     2.6820 f          1 4F3      -0.163000
     11 C11         -4.5230     2.0480     4.6900 c3         1 4F3       0.004500
     12 C12         -3.3100     2.8570     5.0180 cc         1 4F3       0.140300
     13 N13         -2.1330     2.7450     4.3230 nc         1 4F3      -0.682000
     14 C14         -1.3100     3.6210     4.8230 cd         1 4F3       0.391800
     15 N15         -1.8890     4.3090     5.8520 na         1 4F3      -0.173500
     16 C16         -3.1720     3.8270     5.9720 cd         1 4F3       0.096100
     17 O17         -4.0170     4.2980     6.8880 oh         1 4F3      -0.615100
     18 C18         -1.2670     5.2740     6.7350 c3         1 4F3      -0.076400
     19 C           -1.9560     6.6510     6.7870 c          1 4F3       0.718000
     20 O           -3.2190     6.6630     6.7180 o          1 4F3      -0.696000
     21 C22          0.1170     3.7890     4.3980 c3         1 4F3       0.151200
     22 C23          0.2540     3.5010     2.8970 c3         1 4F3       0.141300
     23 O24         -0.4730     4.5210     2.2370 oh         1 4F3      -0.637000
     24 C25          1.7060     3.4860     2.4420 c3         1 4F3      -0.130100
     25 N            0.9590     2.9850     5.2740 n8         1 4F3      -0.993200
     26 OXT         -1.2310     7.6340     6.9450 o          1 4F3      -0.696000
     27 H3          -2.4770    -0.1710     0.1600 ha         1 4F3       0.116000
     28 H4          -3.8100     0.8740    -1.6440 ha         1 4F3       0.098000
     29 H5          -5.6270     2.4730    -1.1170 ha         1 4F3       0.104000
     30 H8          -6.6840     3.7220     3.5720 h4         1 4F3       0.217000
     31 H9          -6.8800     3.6810     1.0830 hn         1 4F3       0.340000
     32 H111        -5.3140     2.2910     5.4030 hc         1 4F3       0.043200
     33 H112        -4.3160     0.9830     4.8280 hc         1 4F3       0.043200
     34 H17         -3.8390     5.3030     6.9120 ho         1 4F3       0.551000
     35 H181        -0.2290     5.3940     6.4360 h1         1 4F3       0.052700
     36 H182        -1.2480     4.8690     7.7530 h1         1 4F3       0.052700
     37 H22          0.4210     4.8330     4.5400 h1         1 4F3       0.081700
     38 H23         -0.1930     2.5190     2.6950 h1         1 4F3       0.055700
     39 HO42        -0.6580     4.2270     1.3410 ho         1 4F3       0.433000
     40 H251         2.2550     2.6480     2.8720 hc         1 4F3       0.031033
     41 H252         2.2220     4.4100     2.7170 hc         1 4F3       0.031033
     42 H253         1.7640     3.3780     1.3570 hc         1 4F3       0.031033
     43 H            1.9370     3.1630     5.0830 hn         1 4F3       0.389500
     44 HN2          0.8030     2.0010     5.0900 hn         1 4F3       0.389500
@<TRIPOS>BOND
     1     1     2 ar  
     2     1     6 ar  
     3     1     7 1   
     4     2     3 ar  
     5     2    10 1   
     6     3     4 ar  
     7     3    27 1   
     8     4     5 ar  
     9     4    28 1   
    10     5     6 ar  
    11     5    29 1   
    12     6     9 1   
    13     7     8 2   
    14     7    11 1   
    15     8     9 1   
    16     8    30 1   
    17     9    31 1   
    18    11    12 1   
    19    11    32 1   
    20    11    33 1   
    21    12    13 1   
    22    12    16 2   
    23    13    14 2   
    24    14    15 1   
    25    14    21 1   
    26    15    16 1   
    27    15    18 1   
    28    16    17 1   
    29    17    34 1   
    30    18    19 1   
    31    18    35 1   
    32    18    36 1   
    33    19    20 1   
    34    19    26 1   
    35    21    22 1   
    36    21    25 1   
    37    21    37 1   
    38    22    23 1   
    39    22    24 1   
    40    22    38 1   
    41    23    39 1   
    42    24    40 1   
    43    24    41 1   
    44    24    42 1   
    45    25    43 1   
    46    25    44 1   
@<TRIPOS>SUBSTRUCTURE
     1 4F3         1 TEMP              0 ****  ****    0 ROOT
