@<TRIPOS>MOLECULE
4F3
   44    46     1     0     0
SMALL
No Charge or Current Charge


@<TRIPOS>ATOM
      1 C1          -4.7420     1.6100     2.0060 ca         1 4F3      -0.121800
      2 C2          -3.7870     0.6710     1.5740 ca         1 4F3       0.251000
      3 C3          -3.7370     0.3420     0.2050 ca         1 4F3      -0.221000
      4 C4          -4.6320     0.9460    -0.7070 ca         1 4F3      -0.077000
      5 C5          -5.5830     1.8810    -0.2470 ca         1 4F3      -0.160000
      6 C6          -5.6100     2.1890     1.1200 ca         1 4F3      -0.035200
      7 C7          -5.0390     2.1460     3.3130 cc         1 4F3      -0.075400
      8 C8          -6.1000     3.0270     3.1300 cd         1 4F3      -0.175100
      9 N9          -6.4620     3.0660     1.7620 na         1 4F3      -0.225700
     10 F10         -2.9340     0.0780     2.4380 f          1 4F3      -0.163000
     11 C11         -4.3630     1.8320     4.6250 c3         1 4F3       0.004500
     12 C12         -3.1890     2.7320     4.9330 cc         1 4F3       0.140300
     13 N13         -1.9220     2.4260     4.5190 nc         1 4F3      -0.682000
     14 C14         -1.1460     3.4170     4.9650 cd         1 4F3       0.391800
     15 N15         -1.8920     4.3670     5.6720 na         1 4F3      -0.173500
     16 C16         -3.1990     3.9060     5.6460 cd         1 4F3       0.096100
     17 O17         -4.2420     4.5340     6.2400 oh         1 4F3      -0.615100
     18 C18         -1.3720     5.5690     6.3840 c3         1 4F3      -0.076400
     19 C           -2.1650     6.8660     6.1510 c          1 4F3       0.718000
     20 O           -3.3030     6.9140     6.5990 o          1 4F3      -0.696000
     21 C22          0.3790     3.4260     4.7490 c3         1 4F3       0.151200
     22 C23          0.7380     3.8860     3.2970 c3         1 4F3       0.141300
     23 O24          0.1790     5.1810     3.0420 oh         1 4F3      -0.637000
     24 C25          2.2580     3.9720     3.0300 c3         1 4F3      -0.130100
     25 N            1.0120     2.1060     5.1020 n8         1 4F3      -0.993200
     26 OXT         -1.6390     7.7730     5.5250 o          1 4F3      -0.696000
     27 H3          -3.0070    -0.3820    -0.1480 ha         1 4F3       0.116000
     28 H4          -4.5910     0.6880    -1.7630 ha         1 4F3       0.098000
     29 H5          -6.2790     2.3490    -0.9400 ha         1 4F3       0.104000
     30 H8          -6.6140     3.6320     3.8730 h4         1 4F3       0.217000
     31 H9          -7.1980     3.6230     1.3380 hn         1 4F3       0.340000
     32 H111        -5.0980     1.9180     5.4330 hc         1 4F3       0.043200
     33 H112        -4.0430     0.7840     4.6410 hc         1 4F3       0.043200
     34 H17         -3.9330     5.4640     6.4600 ho         1 4F3       0.551000
     35 H181        -0.3380     5.7620     6.0810 h1         1 4F3       0.052700
     36 H182        -1.3720     5.3650     7.4620 h1         1 4F3       0.052700
     37 H22          0.8180     4.1670     5.4290 h1         1 4F3       0.081700
     38 H23          0.3100     3.1570     2.5940 h1         1 4F3       0.055700
     39 HO42         0.4200     5.4240     2.1210 ho         1 4F3       0.433000
     40 H251         2.7310     2.9860     3.1130 hc         1 4F3       0.031033
     41 H252         2.7440     4.6490     3.7440 hc         1 4F3       0.031033
     42 H253         2.4530     4.3450     2.0170 hc         1 4F3       0.031033
     43 H            1.9660     2.0790     4.7250 hn         1 4F3       0.389500
     44 HN2          0.5150     1.3690     4.5870 hn         1 4F3       0.389500
@<TRIPOS>BOND
     1     1     2 ar  
     2     1     6 ar  
     3     1     7 1   
     4     2     3 ar  
     5     2    10 1   
     6     3     4 ar  
     7     3    27 1   
     8     4     5 ar  
     9     4    28 1   
    10     5     6 ar  
    11     5    29 1   
    12     6     9 1   
    13     7     8 2   
    14     7    11 1   
    15     8     9 1   
    16     8    30 1   
    17     9    31 1   
    18    11    12 1   
    19    11    32 1   
    20    11    33 1   
    21    12    13 1   
    22    12    16 2   
    23    13    14 2   
    24    14    15 1   
    25    14    21 1   
    26    15    16 1   
    27    15    18 1   
    28    16    17 1   
    29    17    34 1   
    30    18    19 1   
    31    18    35 1   
    32    18    36 1   
    33    19    20 1   
    34    19    26 1   
    35    21    22 1   
    36    21    25 1   
    37    21    37 1   
    38    22    23 1   
    39    22    24 1   
    40    22    38 1   
    41    23    39 1   
    42    24    40 1   
    43    24    41 1   
    44    24    42 1   
    45    25    43 1   
    46    25    44 1   
@<TRIPOS>SUBSTRUCTURE
     1 4F3         1 TEMP              0 ****  ****    0 ROOT
