@<TRIPOS>MOLECULE
4F4
   52    56     1     0     0
SMALL
abcg2


@<TRIPOS>ATOM
      1 C10         -0.2210     0.4270    -0.6120 ca         1 4F4      -0.074000
      2 O01          1.8280    -0.6390     0.8180 o          1 4F4      -0.553100
      3 C02          2.0820     0.2170    -0.0040 c          1 4F4       0.588100
      4 N03          1.1310     0.8510    -0.7370 n          1 4F4      -0.239400
      5 C04          1.4350     1.9310    -1.6730 c3         1 4F4       0.174300
      6 C05          2.0280     3.1530    -1.0320 cc         1 4F4      -0.147300
      7 C06          3.0000     3.9070    -1.6190 cd         1 4F4      -0.251000
      8 S07          3.4450     5.2450    -0.6490 ss         1 4F4       0.232000
      9 C08          2.3310     4.8010     0.5730 cd         1 4F4      -0.240000
     10 C09          1.6450     3.6740     0.2400 cc         1 4F4      -0.121000
     11 C11         -0.5840    -0.8820    -0.9090 ca         1 4F4      -0.081000
     12 C12         -1.9020    -1.2800    -0.8070 ca         1 4F4      -0.141000
     13 C13         -2.8990    -0.3800    -0.4200 ca         1 4F4      -0.016000
     14 N14         -4.1990    -0.8850    -0.3350 ns         1 4F4      -0.142000
     15 C15         -5.3610    -0.2130    -0.1250 c          1 4F4       0.654700
     16 C16         -6.5740    -1.0500    -0.0410 cc         1 4F4      -0.304600
     17 C17         -7.8520    -0.5670    -0.1220 cd         1 4F4      -0.055000
     18 C18         -8.8310    -1.5810    -0.0080 cd         1 4F4      -0.144000
     19 C19         -8.2840    -2.8180     0.1660 cc         1 4F4      -0.220000
     20 S20         -6.5790    -2.7600     0.1940 ss         1 4F4       0.215000
     21 O21         -5.4390     0.9980    -0.0160 o          1 4F4      -0.573100
     22 C22         -2.5390     0.9370    -0.1370 ca         1 4F4      -0.141000
     23 C23         -1.2080     1.3210    -0.2270 ca         1 4F4      -0.081000
     24 C24          3.5310     0.6250    -0.2670 c3         1 4F4       0.002600
     25 N25          4.4240    -0.2680     0.4080 na         1 4F4       0.073600
     26 C26          4.7700    -1.5330     0.0710 ca         1 4F4      -0.065200
     27 C27          4.5000    -2.3480    -1.0300 ca         1 4F4      -0.111000
     28 C28          5.0680    -3.6030    -1.0030 ca         1 4F4      -0.078000
     29 C29          5.8750    -4.0370     0.0710 ca         1 4F4      -0.140000
     30 C30          6.1350    -3.2260     1.1510 ca         1 4F4      -0.026000
     31 C31          5.5630    -1.9490     1.1410 ca         1 4F4       0.016400
     32 N32          5.6240    -0.9260     2.0440 nc         1 4F4      -0.217400
     33 N33          4.9370     0.0490     1.5940 nd         1 4F4      -0.150400
     34 H1           2.0870     1.5720    -2.4740 h1         1 4F4       0.059700
     35 H2           0.4950     2.1930    -2.1590 h1         1 4F4       0.059700
     36 H3           3.4820     3.7330    -2.5700 h4         1 4F4       0.150000
     37 H4           2.2400     5.3900     1.4720 h4         1 4F4       0.157000
     38 H5           0.9050     3.2270     0.8890 ha         1 4F4       0.145000
     39 H6           0.1600    -1.5990    -1.2310 ha         1 4F4       0.122500
     40 H7          -2.1610    -2.3050    -1.0420 ha         1 4F4       0.132000
     41 H8          -4.2660    -1.8730    -0.5280 hn         1 4F4       0.152000
     42 H9          -8.0780     0.4790    -0.2660 ha         1 4F4       0.155000
     43 H10         -9.8960    -1.4020    -0.0490 ha         1 4F4       0.142000
     44 H11         -8.7940    -3.7610     0.2910 h4         1 4F4       0.155000
     45 H12         -3.2720     1.6670     0.1620 ha         1 4F4       0.132000
     46 H13         -0.9550     2.3470     0.0080 ha         1 4F4       0.122500
     47 H14          3.7650     0.6280    -1.3330 h1         1 4F4       0.091700
     48 H15          3.7260     1.6320     0.1010 h1         1 4F4       0.091700
     49 H16          3.8830    -2.0250    -1.8580 ha         1 4F4       0.120000
     50 H17          4.8910    -4.2800    -1.8270 ha         1 4F4       0.113000
     51 H18          6.2950    -5.0330     0.0360 ha         1 4F4       0.117000
     52 H19          6.7520    -3.5580     1.9760 ha         1 4F4       0.133000
@<TRIPOS>BOND
     1     1     4 1   
     2     1    11 ar  
     3     1    23 ar  
     4     2     3 2   
     5     3     4 1   
     6     3    24 1   
     7     4     5 1   
     8     5     6 1   
     9     5    34 1   
    10     5    35 1   
    11     6     7 2   
    12     6    10 1   
    13     7     8 1   
    14     7    36 1   
    15     8     9 1   
    16     9    10 2   
    17     9    37 1   
    18    10    38 1   
    19    11    12 ar  
    20    11    39 1   
    21    12    13 ar  
    22    12    40 1   
    23    13    14 1   
    24    13    22 ar  
    25    14    15 1   
    26    14    41 1   
    27    15    16 1   
    28    15    21 2   
    29    16    17 2   
    30    16    20 1   
    31    17    18 1   
    32    17    42 1   
    33    18    19 2   
    34    18    43 1   
    35    19    20 1   
    36    19    44 1   
    37    22    23 ar  
    38    22    45 1   
    39    23    46 1   
    40    24    25 1   
    41    24    47 1   
    42    24    48 1   
    43    25    26 1   
    44    25    33 1   
    45    26    27 ar  
    46    26    31 ar  
    47    27    28 ar  
    48    27    49 1   
    49    28    29 ar  
    50    28    50 1   
    51    29    30 ar  
    52    29    51 1   
    53    30    31 ar  
    54    30    52 1   
    55    31    32 1   
    56    32    33 2   
@<TRIPOS>SUBSTRUCTURE
     1 4F4         1 TEMP              0 ****  ****    0 ROOT
