@<TRIPOS>MOLECULE
4F4
   52    56     1     0     0
SMALL
No Charge or Current Charge


@<TRIPOS>ATOM
      1 C10         -0.1260     0.5150    -0.7900 ca         1 4F4      -0.074000
      2 O01          1.8540    -0.1000     1.1860 o          1 4F4      -0.553100
      3 C02          2.2080     0.5070     0.1790 c          1 4F4       0.588100
      4 N03          1.2490     0.9720    -0.7690 n          1 4F4      -0.239400
      5 C04          1.6230     2.0890    -1.6780 c3         1 4F4       0.174300
      6 C05          2.1370     3.3070    -0.9430 cc         1 4F4      -0.147300
      7 C06          3.2280     4.0590    -1.3070 cd         1 4F4      -0.251000
      8 S07          3.5250     5.4020    -0.1890 ss         1 4F4       0.232000
      9 C08          2.1310     4.9040     0.7780 cd         1 4F4      -0.240000
     10 C09          1.5240     3.8000     0.2420 cc         1 4F4      -0.121000
     11 C11         -0.4320    -0.8330    -0.5070 ca         1 4F4      -0.081000
     12 C12         -1.7650    -1.2590    -0.3740 ca         1 4F4      -0.141000
     13 C13         -2.8250    -0.3420    -0.4680 ca         1 4F4      -0.016000
     14 N14         -4.1480    -0.8430    -0.3190 ns         1 4F4      -0.142000
     15 C15         -5.3950    -0.2490    -0.4670 c          1 4F4       0.654700
     16 C16         -6.5170    -1.1690    -0.1770 cc         1 4F4      -0.304600
     17 C17         -7.8440    -0.8190    -0.2570 cd         1 4F4      -0.055000
     18 C18         -8.7210    -1.8880     0.0720 cd         1 4F4      -0.144000
     19 C19         -8.0720    -3.0510     0.4030 cc         1 4F4      -0.220000
     20 S20         -6.3240    -2.8510     0.3140 ss         1 4F4       0.215000
     21 O21         -5.5710     0.9140    -0.8090 o          1 4F4      -0.573100
     22 C22         -2.5230     1.0210    -0.6650 ca         1 4F4      -0.141000
     23 C23         -1.1890     1.4450    -0.7990 ca         1 4F4      -0.081000
     24 C24          3.7060     0.7240    -0.1150 c3         1 4F4       0.002600
     25 N25          4.5760    -0.2900     0.4990 na         1 4F4       0.073600
     26 C26          4.6760    -1.5840     0.0930 ca         1 4F4      -0.065200
     27 C27          4.0240    -2.3070    -0.9170 ca         1 4F4      -0.111000
     28 C28          4.3740    -3.6660    -1.0620 ca         1 4F4      -0.078000
     29 C29          5.3440    -4.2470    -0.2090 ca         1 4F4      -0.140000
     30 C30          5.9720    -3.4750     0.7960 ca         1 4F4      -0.026000
     31 C31          5.6080    -2.1260     0.9210 ca         1 4F4       0.016400
     32 N32          6.0760    -1.1700     1.8200 nc         1 4F4      -0.217400
     33 N33          5.4330    -0.0300     1.5480 nd         1 4F4      -0.150400
     34 H1           2.3860     1.7360    -2.3820 h1         1 4F4       0.059700
     35 H2           0.7610     2.3810    -2.2890 h1         1 4F4       0.059700
     36 H3           3.8830     3.9180    -2.1580 h4         1 4F4       0.150000
     37 H4           1.8580     5.4580     1.6680 h4         1 4F4       0.157000
     38 H5           0.6500     3.3290     0.6840 ha         1 4F4       0.145000
     39 H6           0.3650    -1.5680    -0.4170 ha         1 4F4       0.122500
     40 H7          -1.9690    -2.3110    -0.1900 ha         1 4F4       0.132000
     41 H8          -4.1860    -1.8170    -0.0520 hn         1 4F4       0.152000
     42 H9          -8.1920     0.1710    -0.5430 ha         1 4F4       0.155000
     43 H10         -9.8030    -1.7920     0.0620 ha         1 4F4       0.142000
     44 H11         -8.4850    -4.0090     0.6920 h4         1 4F4       0.155000
     45 H12         -3.3040     1.7740    -0.6950 ha         1 4F4       0.132000
     46 H13         -0.9940     2.5080    -0.9100 ha         1 4F4       0.122500
     47 H14          3.8690     0.6940    -1.1960 h1         1 4F4       0.091700
     48 H15          3.9860     1.7160     0.2540 h1         1 4F4       0.091700
     49 H16          3.2810    -1.8460    -1.5630 ha         1 4F4       0.120000
     50 H17          3.8960    -4.2690    -1.8310 ha         1 4F4       0.113000
     51 H18          5.6080    -5.2950    -0.3260 ha         1 4F4       0.117000
     52 H19          6.7170    -3.9140     1.4550 ha         1 4F4       0.133000
@<TRIPOS>BOND
     1     1     4 1   
     2     1    11 ar  
     3     1    23 ar  
     4     2     3 2   
     5     3     4 1   
     6     3    24 1   
     7     4     5 1   
     8     5     6 1   
     9     5    34 1   
    10     5    35 1   
    11     6     7 2   
    12     6    10 1   
    13     7     8 1   
    14     7    36 1   
    15     8     9 1   
    16     9    10 2   
    17     9    37 1   
    18    10    38 1   
    19    11    12 ar  
    20    11    39 1   
    21    12    13 ar  
    22    12    40 1   
    23    13    14 1   
    24    13    22 ar  
    25    14    15 1   
    26    14    41 1   
    27    15    16 1   
    28    15    21 2   
    29    16    17 2   
    30    16    20 1   
    31    17    18 1   
    32    17    42 1   
    33    18    19 2   
    34    18    43 1   
    35    19    20 1   
    36    19    44 1   
    37    22    23 ar  
    38    22    45 1   
    39    23    46 1   
    40    24    25 1   
    41    24    47 1   
    42    24    48 1   
    43    25    26 1   
    44    25    33 1   
    45    26    27 ar  
    46    26    31 ar  
    47    27    28 ar  
    48    27    49 1   
    49    28    29 ar  
    50    28    50 1   
    51    29    30 ar  
    52    29    51 1   
    53    30    31 ar  
    54    30    52 1   
    55    31    32 1   
    56    32    33 2   
@<TRIPOS>SUBSTRUCTURE
     1 4F4         1 TEMP              0 ****  ****    0 ROOT
