@<TRIPOS>MOLECULE
4F5
   64    67     1     0     0
SMALL
No Charge or Current Charge


@<TRIPOS>ATOM
      1 C10          6.8030    -3.9040     1.3640 c3         1 4F5      -0.184100
      2 C12          2.6020    -2.5940    -0.0750 ca         1 4F5      -0.153500
      3 C13          1.3870    -1.9620    -0.3930 ca         1 4F5      -0.062000
      4 C14         -0.2660     1.4090    -0.5640 c3         1 4F5       0.111000
      5 C15         -0.5870     2.3370     0.6420 c          1 4F5       0.580100
      6 C17         -1.0430     4.7920     1.2080 c3         1 4F5       0.137400
      7 O01         -1.3110    -1.8120     0.7700 o          1 4F5      -0.545100
      8 C02         -1.3690    -0.7480     0.1600 c          1 4F5       0.590100
      9 C04          1.1370    -0.6290    -0.0040 ca         1 4F5      -0.076000
     10 C05          2.0750    -0.0020     0.8440 ca         1 4F5      -0.062000
     11 C06          3.2900    -0.6320     1.1630 ca         1 4F5      -0.153500
     12 C07          3.5760    -1.9250     0.6930 ca         1 4F5      -0.012000
     13 N08          4.8240    -2.5000     1.0580 ns         1 4F5      -0.150000
     14 C09          5.4520    -3.6830     0.6900 c          1 4F5       0.608100
     15 O11          4.9960    -4.4970    -0.1050 o          1 4F5      -0.578100
     16 N16         -0.7440     3.6730     0.3070 ns         1 4F5      -0.502900
     17 C18         -1.0990     6.0680     0.3380 c3         1 4F5      -0.104767
     18 C19         -2.4160     4.5860     1.8950 c3         1 4F5      -0.104767
     19 C20          0.0780     4.9510     2.2660 c3         1 4F5      -0.104767
     20 O21         -0.7120     1.9200     1.7860 o          1 4F5      -0.588100
     21 C22          0.9170     1.8490    -1.4140 cc         1 4F5      -0.142300
     22 C23          1.9450     2.6880    -1.0460 cd         1 4F5      -0.213000
     23 S24          3.1220     2.9220    -2.3490 ss         1 4F5       0.242000
     24 C25          2.1720     1.8630    -3.3990 cd         1 4F5      -0.246000
     25 C26          1.0610     1.3930    -2.7520 cc         1 4F5      -0.121000
     26 C27         -2.7320    -0.1700    -0.2760 c3         1 4F5      -0.000400
     27 N28         -3.8710    -1.0690    -0.0330 na         1 4F5       0.073600
     28 C29         -4.2120    -2.1310    -0.8100 ca         1 4F5      -0.064200
     29 C30         -3.6240    -2.6890    -1.9540 ca         1 4F5      -0.110000
     30 C31         -4.2530    -3.8200    -2.5150 ca         1 4F5      -0.077000
     31 C32         -5.4280    -4.3470    -1.9240 ca         1 4F5      -0.139000
     32 C33         -5.9820    -3.7500    -0.7690 ca         1 4F5      -0.027000
     33 C34         -5.3380    -2.6260    -0.2290 ca         1 4F5       0.016400
     34 N35         -5.6820    -1.8690     0.8890 nc         1 4F5      -0.217400
     35 N36         -4.7690    -0.9000     1.0020 nd         1 4F5      -0.149400
     36 H1           6.6720    -3.8550     2.4510 hc         1 4F5       0.064367
     37 H2           7.2810    -4.8410     1.0550 hc         1 4F5       0.064367
     38 H3           7.4450    -3.0380     1.1680 hc         1 4F5       0.064367
     39 H4           2.7560    -3.6110    -0.4220 ha         1 4F5       0.130000
     40 H5           0.6440    -2.5060    -0.9710 ha         1 4F5       0.130000
     41 H6          -1.1230     1.5360    -1.2340 h1         1 4F5       0.056700
     42 H7           1.8700     0.9810     1.2590 ha         1 4F5       0.130000
     43 H8           4.0070    -0.1100     1.7930 ha         1 4F5       0.130000
     44 H9           5.3550    -1.9400     1.7120 hn         1 4F5       0.148000
     45 H10         -0.6000     3.8950    -0.6710 hn         1 4F5       0.310500
     46 H11         -0.1420     6.2400    -0.1700 hc         1 4F5       0.046144
     47 H12         -1.8800     5.9870    -0.4280 hc         1 4F5       0.046144
     48 H13         -1.3190     6.9520     0.9500 hc         1 4F5       0.046144
     49 H14         -2.6890     5.4670     2.4890 hc         1 4F5       0.046144
     50 H15         -3.2040     4.4240     1.1490 hc         1 4F5       0.046144
     51 H16         -2.4060     3.7240     2.5710 hc         1 4F5       0.046144
     52 H17          1.0580     5.0490     1.7840 hc         1 4F5       0.046144
     53 H18         -0.0900     5.8460     2.8770 hc         1 4F5       0.046144
     54 H19          0.1180     4.0920     2.9450 hc         1 4F5       0.046144
     55 H20          2.1040     3.1830    -0.0960 h4         1 4F5       0.166000
     56 H21          2.5000     1.6600    -4.4110 h4         1 4F5       0.155000
     57 H22          0.3420     0.7190    -3.2120 ha         1 4F5       0.134000
     58 H23         -2.9000     0.7680     0.2630 h1         1 4F5       0.085200
     59 H24         -2.6880     0.0460    -1.3490 h1         1 4F5       0.085200
     60 H25         -2.7200    -2.2730    -2.3940 ha         1 4F5       0.120000
     61 H26         -3.8340    -4.2880    -3.4030 ha         1 4F5       0.114000
     62 H27         -5.9070    -5.2200    -2.3620 ha         1 4F5       0.117000
     63 H28         -6.8820    -4.1490    -0.3080 ha         1 4F5       0.133000
     64 N03         -0.1770    -0.0470    -0.1990 n          1 4F5      -0.223400
@<TRIPOS>BOND
     1     1    14 1   
     2     1    36 1   
     3     1    37 1   
     4     1    38 1   
     5     2     3 ar  
     6     2    12 ar  
     7     2    39 1   
     8     3     9 ar  
     9     3    40 1   
    10     4     5 1   
    11     4    21 1   
    12     4    41 1   
    13     4    64 1   
    14     5    16 1   
    15     5    20 2   
    16     6    16 1   
    17     6    17 1   
    18     6    18 1   
    19     6    19 1   
    20     7     8 2   
    21     8    26 1   
    22     8    64 1   
    23     9    10 ar  
    24     9    64 1   
    25    10    11 ar  
    26    10    42 1   
    27    11    12 ar  
    28    11    43 1   
    29    12    13 1   
    30    13    14 1   
    31    13    44 1   
    32    14    15 2   
    33    16    45 1   
    34    17    46 1   
    35    17    47 1   
    36    17    48 1   
    37    18    49 1   
    38    18    50 1   
    39    18    51 1   
    40    19    52 1   
    41    19    53 1   
    42    19    54 1   
    43    21    22 2   
    44    21    25 1   
    45    22    23 1   
    46    22    55 1   
    47    23    24 1   
    48    24    25 2   
    49    24    56 1   
    50    25    57 1   
    51    26    27 1   
    52    26    58 1   
    53    26    59 1   
    54    27    28 1   
    55    27    35 1   
    56    28    29 ar  
    57    28    33 ar  
    58    29    30 ar  
    59    29    60 1   
    60    30    31 ar  
    61    30    61 1   
    62    31    32 ar  
    63    31    62 1   
    64    32    33 ar  
    65    32    63 1   
    66    33    34 1   
    67    34    35 2   
@<TRIPOS>SUBSTRUCTURE
     1 4F5         1 TEMP              0 ****  ****    0 ROOT
