@<TRIPOS>MOLECULE
4F5
   64    67     1     0     0
SMALL
bcc


@<TRIPOS>ATOM
      1 C10          6.7550    -3.8430     1.2600 c3         1 4F5      -0.184100
      2 C12          2.9540    -2.0940    -0.4910 ca         1 4F5      -0.171500
      3 C13          1.7580    -1.4480    -0.7700 ca         1 4F5      -0.080000
      4 C14         -0.1240     1.3180    -0.5900 c3         1 4F5       0.111000
      5 C15         -0.4700     2.3000     0.5420 c          1 4F5       0.647100
      6 C17         -1.2780     4.6490     0.8990 c3         1 4F5       0.137400
      7 O01         -1.3080    -1.8690     0.5700 o          1 4F5      -0.545100
      8 C02         -1.2850    -0.7380     0.1290 c          1 4F5       0.657100
      9 C04          1.0890    -0.7240     0.2020 ca         1 4F5       0.016600
     10 C05          1.6210    -0.6550     1.4810 ca         1 4F5      -0.080000
     11 C06          2.8080    -1.2990     1.7730 ca         1 4F5      -0.171500
     12 C07          3.4940    -2.0240     0.7940 ca         1 4F5       0.080600
     13 N08          4.6820    -2.6400     1.1890 ns         1 4F5      -0.476100
     14 C09          5.5740    -3.3600     0.4560 c          1 4F5       0.675100
     15 O11          5.4430    -3.5920    -0.7320 o          1 4F5      -0.578100
     16 N16         -1.0000     3.4450     0.1020 ns         1 4F5      -0.569900
     17 C18         -1.8610     5.6720    -0.0730 c3         1 4F5      -0.104767
     18 C19         -2.3030     4.3530     1.9940 c3         1 4F5      -0.104767
     19 C20          0.0150     5.2000     1.5020 c3         1 4F5      -0.104767
     20 O21         -0.2520     2.0210     1.7090 o          1 4F5      -0.588100
     21 C22          1.2000     1.6780    -1.2020 cc         1 4F5      -0.142300
     22 C23          2.2680     2.1780    -0.5170 cd         1 4F5      -0.086100
     23 S24          3.6210     2.4000    -1.5340 ss         1 4F5      -0.047800
     24 C25          2.7670     1.8250    -2.9030 cd         1 4F5      -0.119100
     25 C26          1.4920     1.4780    -2.5820 cc         1 4F5      -0.139000
     26 C27         -2.5930    -0.0110    -0.1880 c3         1 4F5      -0.029700
     27 N28         -3.7090    -0.8780     0.0340 na         1 4F5       0.102900
     28 C29         -4.1680    -1.8770    -0.7550 ca         1 4F5      -0.064200
     29 C30         -3.8290    -2.3330    -2.0300 ca         1 4F5      -0.128000
     30 C31         -4.5660    -3.3940    -2.5050 ca         1 4F5      -0.095000
     31 C32         -5.6020    -3.9860    -1.7480 ca         1 4F5      -0.157000
     32 C33         -5.9270    -3.5290    -0.4910 ca         1 4F5      -0.045000
     33 C34         -5.1860    -2.4520     0.0050 ca         1 4F5       0.016400
     34 N35         -5.2570    -1.7780     1.1920 nc         1 4F5      -0.217400
     35 N36         -4.3700    -0.8620     1.1890 nd         1 4F5      -0.149400
     36 H1           6.4290    -4.4260     2.1220 hc         1 4F5       0.064367
     37 H2           7.4020    -4.4600     0.6430 hc         1 4F5       0.064367
     38 H3           7.3330    -2.9990     1.6380 hc         1 4F5       0.064367
     39 H4           3.4460    -2.6460    -1.2730 ha         1 4F5       0.148000
     40 H5           1.3480    -1.5110    -1.7690 ha         1 4F5       0.148000
     41 H6          -0.8700     1.4180    -1.3840 h1         1 4F5       0.056700
     42 H7           1.1110    -0.0890     2.2470 ha         1 4F5       0.148000
     43 H8           3.2100    -1.2380     2.7770 ha         1 4F5       0.148000
     44 H9           4.9130    -2.5200     2.1640 hn         1 4F5       0.314500
     45 H10         -1.1060     3.5440    -0.8960 hn         1 4F5       0.310500
     46 H11         -1.1620     5.8960    -0.8820 hc         1 4F5       0.046144
     47 H12         -2.7940     5.3170    -0.5140 hc         1 4F5       0.046144
     48 H13         -2.0720     6.6040     0.4520 hc         1 4F5       0.046144
     49 H14         -2.5860     5.2830     2.4900 hc         1 4F5       0.046144
     50 H15         -3.2070     3.9100     1.5720 hc         1 4F5       0.046144
     51 H16         -1.9080     3.6770     2.7500 hc         1 4F5       0.046144
     52 H17          0.7580     5.3810     0.7240 hc         1 4F5       0.046144
     53 H18         -0.1840     6.1470     2.0040 hc         1 4F5       0.046144
     54 H19          0.4440     4.5180     2.2340 hc         1 4F5       0.046144
     55 H20          2.3370     2.4040     0.5360 h4         1 4F5       0.184000
     56 H21          3.2440     1.7830    -3.8700 h4         1 4F5       0.173000
     57 H22          0.7790     1.0910    -3.2970 ha         1 4F5       0.152000
     58 H23         -2.7220     0.8650     0.4490 h1         1 4F5       0.085200
     59 H24         -2.6190     0.3380    -1.2220 h1         1 4F5       0.085200
     60 H25         -3.0370    -1.8860    -2.6170 ha         1 4F5       0.138000
     61 H26         -4.3480    -3.7890    -3.4880 ha         1 4F5       0.132000
     62 H27         -6.1470    -4.8170    -2.1730 ha         1 4F5       0.135000
     63 H28         -6.7190    -3.9820     0.0900 ha         1 4F5       0.151000
     64 N03         -0.1360    -0.0660    -0.1190 n          1 4F5      -0.383000
@<TRIPOS>BOND
     1     1    14 1   
     2     1    36 1   
     3     1    37 1   
     4     1    38 1   
     5     2     3 ar  
     6     2    12 ar  
     7     2    39 1   
     8     3     9 ar  
     9     3    40 1   
    10     4     5 1   
    11     4    21 1   
    12     4    41 1   
    13     4    64 1   
    14     5    16 1   
    15     5    20 2   
    16     6    16 1   
    17     6    17 1   
    18     6    18 1   
    19     6    19 1   
    20     7     8 2   
    21     8    26 1   
    22     8    64 1   
    23     9    10 ar  
    24     9    64 1   
    25    10    11 ar  
    26    10    42 1   
    27    11    12 ar  
    28    11    43 1   
    29    12    13 1   
    30    13    14 1   
    31    13    44 1   
    32    14    15 2   
    33    16    45 1   
    34    17    46 1   
    35    17    47 1   
    36    17    48 1   
    37    18    49 1   
    38    18    50 1   
    39    18    51 1   
    40    19    52 1   
    41    19    53 1   
    42    19    54 1   
    43    21    22 2   
    44    21    25 1   
    45    22    23 1   
    46    22    55 1   
    47    23    24 1   
    48    24    25 2   
    49    24    56 1   
    50    25    57 1   
    51    26    27 1   
    52    26    58 1   
    53    26    59 1   
    54    27    28 1   
    55    27    35 1   
    56    28    29 ar  
    57    28    33 ar  
    58    29    30 ar  
    59    29    60 1   
    60    30    31 ar  
    61    30    61 1   
    62    31    32 ar  
    63    31    62 1   
    64    32    33 ar  
    65    32    63 1   
    66    33    34 1   
    67    34    35 2   
@<TRIPOS>SUBSTRUCTURE
     1 4F5         1 TEMP              0 ****  ****    0 ROOT
