@<TRIPOS>MOLECULE
4F6
   48    52     1     0     0
SMALL
abcg2


@<TRIPOS>ATOM
      1 C1          -5.5160    -0.5760    -0.9090 ca         1 4F6       0.173000
      2 C2          -5.0810    -1.0100    -2.1460 ca         1 4F6      -0.143000
      3 C3          -3.8070    -0.6400    -2.5540 ca         1 4F6      -0.082000
      4 C11         -0.7270    -0.0560     0.6280 cc         1 4F6       0.575900
      5 C12          0.3150    -2.5140     1.2240 cd         1 4F6      -0.144000
      6 C13         -1.0670    -2.3190     1.3870 cd         1 4F6      -0.002000
      7 C14         -1.5900    -1.1010     1.1010 cc         1 4F6      -0.191000
      8 C15          2.3280    -3.1580     1.1050 cc         1 4F6      -0.033400
      9 C16          2.3560    -1.8230     0.7290 cd         1 4F6      -0.099300
     10 C17          3.4820    -0.9930     0.3400 ca         1 4F6       0.021200
     11 C18          4.6080    -1.6150    -0.2160 ca         1 4F6      -0.101000
     12 C19          5.7230    -0.8850    -0.5710 ca         1 4F6      -0.073000
     13 C20          5.7310     0.4980    -0.3840 ca         1 4F6      -0.020000
     14 C21          4.6200     1.1330     0.1680 ca         1 4F6      -0.073000
     15 C22          3.5080     0.3940     0.5260 ca         1 4F6      -0.101000
     16 C23          6.8760     1.2610    -0.7590 cg         1 4F6       0.325000
     17 N5           7.8040     1.8730    -1.0620 n1         1 4F6      -0.454000
     18 N3           1.0470    -1.4300     0.8160 na         1 4F6       0.285900
     19 N2           0.5650    -0.2300     0.5100 nd         1 4F6      -0.567800
     20 N4           1.0880    -3.5740     1.4080 nc         1 4F6      -0.260600
     21 N1          -1.1970     1.1960     0.2910 nh         1 4F6      -0.763300
     22 C10         -0.2810     2.3020     0.5830 c6         1 4F6       0.178800
     23 C9          -0.7940     3.6250     0.0660 c6         1 4F6       0.138600
     24 O           -2.1150     3.8580     0.4930 os         1 4F6      -0.431000
     25 C8          -2.9470     2.8910    -0.0790 c6         1 4F6       0.148600
     26 C7          -2.6260     1.4630     0.3900 c6         1 4F6       0.235800
     27 C5          -3.4530     0.5540    -0.4930 ca         1 4F6      -0.081300
     28 C6          -4.7310     0.1970    -0.0770 ca         1 4F6      -0.156000
     29 F           -6.7450    -0.9220    -0.4950 f          1 4F6      -0.176000
     30 C4          -2.9960     0.1370    -1.7390 ca         1 4F6      -0.104000
     31 H1          -5.7170    -1.6220    -2.7710 ha         1 4F6       0.136000
     32 H2          -3.4440    -0.9670    -3.5190 ha         1 4F6       0.123000
     33 H12         -1.6820    -3.1290     1.7540 ha         1 4F6       0.150000
     34 H13         -2.6410    -0.9290     1.2650 ha         1 4F6       0.142000
     35 H14          3.1800    -3.8170     1.1810 h4         1 4F6       0.231000
     36 H15          4.6060    -2.6830    -0.3880 ha         1 4F6       0.127000
     37 H16          6.5810    -1.3820    -1.0020 ha         1 4F6       0.125000
     38 H17          4.6260     2.2030     0.3220 ha         1 4F6       0.125000
     39 H18          2.6640     0.9020     0.9670 ha         1 4F6       0.127000
     40 H10         -0.1120     2.3700     1.6640 h1         1 4F6       0.062700
     41 H11          0.6810     2.1060     0.1150 h1         1 4F6       0.062700
     42 H8          -0.1640     4.4240     0.4580 h1         1 4F6       0.059700
     43 H9          -0.7360     3.6580    -1.0300 h1         1 4F6       0.059700
     44 H7          -3.9780     3.1140     0.2000 h1         1 4F6       0.061700
     45 H6          -2.8770     2.9310    -1.1750 h1         1 4F6       0.061700
     46 H5          -2.9680     1.3630     1.4310 h1         1 4F6       0.056700
     47 H4          -5.1070     0.5060     0.8920 ha         1 4F6       0.132000
     48 H3          -2.0060     0.4150    -2.0740 ha         1 4F6       0.134000
@<TRIPOS>BOND
     1     1     2 ar  
     2     1    28 ar  
     3     1    29 1   
     4     2     3 ar  
     5     2    31 1   
     6     3    30 ar  
     7     3    32 1   
     8     4     7 1   
     9     4    19 2   
    10     4    21 1   
    11     5     6 1   
    12     5    18 1   
    13     5    20 2   
    14     6     7 2   
    15     6    33 1   
    16     7    34 1   
    17     8     9 2   
    18     8    20 1   
    19     8    35 1   
    20     9    10 1   
    21     9    18 1   
    22    10    11 ar  
    23    10    15 ar  
    24    11    12 ar  
    25    11    36 1   
    26    12    13 ar  
    27    12    37 1   
    28    13    14 ar  
    29    13    16 1   
    30    14    15 ar  
    31    14    38 1   
    32    15    39 1   
    33    16    17 3   
    34    18    19 1   
    35    21    22 1   
    36    21    26 1   
    37    22    23 1   
    38    22    40 1   
    39    22    41 1   
    40    23    24 1   
    41    23    42 1   
    42    23    43 1   
    43    24    25 1   
    44    25    26 1   
    45    25    44 1   
    46    25    45 1   
    47    26    27 1   
    48    26    46 1   
    49    27    28 ar  
    50    27    30 ar  
    51    28    47 1   
    52    30    48 1   
@<TRIPOS>SUBSTRUCTURE
     1 4F6         1 TEMP              0 ****  ****    0 ROOT
