@<TRIPOS>MOLECULE
4F6
   48    52     1     0     0
SMALL
No Charge or Current Charge


@<TRIPOS>ATOM
      1 C1          -4.7860    -1.0980    -1.3420 ca         1 4F6       0.173000
      2 C2          -3.9780    -1.3800    -2.4540 ca         1 4F6      -0.143000
      3 C3          -2.7820    -0.6680    -2.6470 ca         1 4F6      -0.082000
      4 C11         -0.8940     0.1620     1.1250 cc         1 4F6       0.575900
      5 C12          0.0420    -2.3070     1.4440 cd         1 4F6      -0.144000
      6 C13         -1.2980    -2.1160     1.8770 cd         1 4F6      -0.002000
      7 C14         -1.7590    -0.8370     1.7030 cc         1 4F6      -0.191000
      8 C15          1.9810    -3.0850     0.9860 cc         1 4F6      -0.033400
      9 C16          2.0680    -1.7600     0.5820 cd         1 4F6      -0.099300
     10 C17          3.2540    -1.0750    -0.0070 ca         1 4F6       0.021200
     11 C18          4.4670    -1.7910    -0.1390 ca         1 4F6      -0.101000
     12 C19          5.6150    -1.1920    -0.6880 ca         1 4F6      -0.073000
     13 C20          5.5770     0.1430    -1.1220 ca         1 4F6      -0.020000
     14 C21          4.3810     0.8700    -1.0030 ca         1 4F6      -0.073000
     15 C22          3.2350     0.2690    -0.4530 ca         1 4F6      -0.101000
     16 C23          6.7490     0.7580    -1.6840 cg         1 4F6       0.325000
     17 N5           7.7060     1.2500    -2.1390 n1         1 4F6      -0.454000
     18 N3           0.7980    -1.2960     0.8950 na         1 4F6       0.285900
     19 N2           0.3680     0.0060     0.7340 nd         1 4F6      -0.567800
     20 N4           0.7490    -3.4160     1.5040 nc         1 4F6      -0.260600
     21 N1          -1.4120     1.4300     0.9760 nh         1 4F6      -0.763300
     22 C10         -0.8150     2.5780     1.7320 c6         1 4F6       0.178800
     23 C9          -1.0080     3.9350     1.0000 c6         1 4F6       0.138600
     24 O           -2.3960     4.1300     0.6510 os         1 4F6      -0.431000
     25 C8          -2.8880     3.1010    -0.2380 c6         1 4F6       0.148600
     26 C7          -2.7840     1.6840     0.4140 c6         1 4F6       0.235800
     27 C5          -3.2080     0.6090    -0.6030 ca         1 4F6      -0.081300
     28 C6          -4.4070    -0.1100    -0.4200 ca         1 4F6      -0.156000
     29 F           -5.9350    -1.7830    -1.1560 f          1 4F6      -0.176000
     30 C4          -2.4000     0.3230    -1.7250 ca         1 4F6      -0.104000
     31 H1          -4.2800    -2.1480    -3.1620 ha         1 4F6       0.136000
     32 H2          -2.1510    -0.8850    -3.5060 ha         1 4F6       0.123000
     33 H12         -1.8990    -2.9080     2.3130 ha         1 4F6       0.150000
     34 H13         -2.7620    -0.5670     2.0060 ha         1 4F6       0.142000
     35 H14          2.7460    -3.8530     0.9360 h4         1 4F6       0.231000
     36 H15          4.5400    -2.8240     0.1860 ha         1 4F6       0.127000
     37 H16          6.5330    -1.7700    -0.7740 ha         1 4F6       0.125000
     38 H17          4.3340     1.9050    -1.3380 ha         1 4F6       0.125000
     39 H18          2.3390     0.8740    -0.3960 ha         1 4F6       0.127000
     40 H10         -1.2800     2.6460     2.7260 h1         1 4F6       0.062700
     41 H11          0.2610     2.4200     1.8960 h1         1 4F6       0.062700
     42 H8          -0.6790     4.7590     1.6490 h1         1 4F6       0.059700
     43 H9          -0.3960     3.9560     0.0860 h1         1 4F6       0.059700
     44 H7          -3.9370     3.3150    -0.4880 h1         1 4F6       0.061700
     45 H6          -2.3080     3.1280    -1.1710 h1         1 4F6       0.061700
     46 H5          -3.5030     1.6640     1.2470 h1         1 4F6       0.056700
     47 H4          -5.0470     0.0920     0.4360 ha         1 4F6       0.132000
     48 H3          -1.4670     0.8630    -1.8760 ha         1 4F6       0.134000
@<TRIPOS>BOND
     1     1     2 ar  
     2     1    28 ar  
     3     1    29 1   
     4     2     3 ar  
     5     2    31 1   
     6     3    30 ar  
     7     3    32 1   
     8     4     7 1   
     9     4    19 2   
    10     4    21 1   
    11     5     6 1   
    12     5    18 1   
    13     5    20 2   
    14     6     7 2   
    15     6    33 1   
    16     7    34 1   
    17     8     9 2   
    18     8    20 1   
    19     8    35 1   
    20     9    10 1   
    21     9    18 1   
    22    10    11 ar  
    23    10    15 ar  
    24    11    12 ar  
    25    11    36 1   
    26    12    13 ar  
    27    12    37 1   
    28    13    14 ar  
    29    13    16 1   
    30    14    15 ar  
    31    14    38 1   
    32    15    39 1   
    33    16    17 3   
    34    18    19 1   
    35    21    22 1   
    36    21    26 1   
    37    22    23 1   
    38    22    40 1   
    39    22    41 1   
    40    23    24 1   
    41    23    42 1   
    42    23    43 1   
    43    24    25 1   
    44    25    26 1   
    45    25    44 1   
    46    25    45 1   
    47    26    27 1   
    48    26    46 1   
    49    27    28 ar  
    50    27    30 ar  
    51    28    47 1   
    52    30    48 1   
@<TRIPOS>SUBSTRUCTURE
     1 4F6         1 TEMP              0 ****  ****    0 ROOT
