@<TRIPOS>MOLECULE
4F7
   39    42     1     0     0
SMALL
bcc


@<TRIPOS>ATOM
      1 C1          -4.4370    -1.4150     0.4840 ca         1 4F7      -0.113500
      2 C2          -5.5530    -2.1740     0.8050 ca         1 4F7      -0.133000
      3 C3          -6.8300    -1.6730     0.5920 ca         1 4F7      -0.128000
      4 C4          -6.9780    -0.4000     0.0520 ca         1 4F7      -0.133000
      5 C5          -5.8640     0.3590    -0.2700 ca         1 4F7      -0.113500
      6 C6          -4.5740    -0.1360    -0.0580 ca         1 4F7      -0.102500
      7 N1          -2.1230     0.1660    -0.2200 nc         1 4F7      -0.674000
      8 C7          -3.3910     0.6550    -0.3930 cc         1 4F7       0.365800
      9 C8          -3.3230     1.9290    -0.8960 cd         1 4F7      -0.246600
     10 C9          -1.3040     1.1110    -0.6070 cd         1 4F7       0.401800
     11 N2          -1.9930     2.1960    -1.0210 na         1 4F7      -0.295900
     12 C10          0.1830     1.0270    -0.6240 c3         1 4F7      -0.092700
     13 C11          0.7350     0.4610     0.6850 c3         1 4F7      -0.120700
     14 C12          2.2230     0.2780     0.6520 ca         1 4F7       0.313300
     15 C13          3.0300     0.7580     1.7230 ca         1 4F7       0.302900
     16 C14          4.8970    -0.0290     0.7090 ca         1 4F7       0.282300
     17 C15          6.2950    -0.2180     0.6840 ca         1 4F7      -0.156300
     18 C16          6.8760    -0.8640    -0.3750 ca         1 4F7      -0.121000
     19 C17          6.0870    -1.3400    -1.4440 ca         1 4F7      -0.118000
     20 C18          4.7290    -1.1670    -1.4420 ca         1 4F7      -0.160300
     21 C19          4.1060    -0.5060    -0.3620 ca         1 4F7       0.297300
     22 N3           4.3220     0.6110     1.7540 nb         1 4F7      -0.623000
     23 N4           2.7640    -0.3380    -0.3620 nb         1 4F7      -0.639000
     24 H1          -3.4460    -1.8160     0.6550 ha         1 4F7       0.136000
     25 H2          -5.4210    -3.1630     1.2260 ha         1 4F7       0.128000
     26 H3          -7.7010    -2.2650     0.8410 ha         1 4F7       0.128000
     27 H4          -7.9670     0.0040    -0.1200 ha         1 4F7       0.128000
     28 H5          -6.0070     1.3460    -0.6920 ha         1 4F7       0.136000
     29 H7          -4.0770     2.6510    -1.1630 h4         1 4F7       0.177000
     30 H8          -1.5970     3.0570    -1.3650 hn         1 4F7       0.300700
     31 H9           0.5030     0.3960    -1.4550 hc         1 4F7       0.062700
     32 H10          0.6030     2.0180    -0.8080 hc         1 4F7       0.062700
     33 H11          0.4650     1.1140     1.5170 hc         1 4F7       0.071200
     34 H12          0.2660    -0.5060     0.8860 hc         1 4F7       0.071200
     35 H13          2.5620     1.2700     2.5570 h4         1 4F7       0.029100
     36 H14          6.8860     0.1540     1.5110 ha         1 4F7       0.151000
     37 H15          7.9470    -1.0110    -0.3970 ha         1 4F7       0.137000
     38 H16          6.5660    -1.8460    -2.2720 ha         1 4F7       0.137000
     39 H17          4.1150    -1.5300    -2.2560 ha         1 4F7       0.151000
@<TRIPOS>BOND
     1     1     2 ar  
     2     1     6 ar  
     3     1    24 1   
     4     2     3 ar  
     5     2    25 1   
     6     3     4 ar  
     7     3    26 1   
     8     4     5 ar  
     9     4    27 1   
    10     5     6 ar  
    11     5    28 1   
    12     6     8 1   
    13     7     8 1   
    14     7    10 2   
    15     8     9 2   
    16     9    11 1   
    17     9    29 1   
    18    10    11 1   
    19    10    12 1   
    20    11    30 1   
    21    12    13 1   
    22    12    31 1   
    23    12    32 1   
    24    13    14 1   
    25    13    33 1   
    26    13    34 1   
    27    14    15 ar  
    28    14    23 ar  
    29    15    22 ar  
    30    15    35 1   
    31    16    17 ar  
    32    16    21 ar  
    33    16    22 ar  
    34    17    18 ar  
    35    17    36 1   
    36    18    19 ar  
    37    18    37 1   
    38    19    20 ar  
    39    19    38 1   
    40    20    21 ar  
    41    20    39 1   
    42    21    23 ar  
@<TRIPOS>SUBSTRUCTURE
     1 4F7         1 TEMP              0 ****  ****    0 ROOT
