@<TRIPOS>MOLECULE
4F7
   39    42     1     0     0
SMALL
No Charge or Current Charge


@<TRIPOS>ATOM
      1 C1          -4.6520    -1.6190    -0.2650 ca         1 4F7      -0.095500
      2 C2          -5.8390    -2.3710    -0.3090 ca         1 4F7      -0.115000
      3 C3          -7.0820    -1.7320    -0.1900 ca         1 4F7      -0.110000
      4 C4          -7.1370    -0.3390    -0.0330 ca         1 4F7      -0.115000
      5 C5          -5.9510     0.4160     0.0120 ca         1 4F7      -0.095500
      6 C6          -4.6890    -0.2160    -0.0920 ca         1 4F7      -0.102500
      7 N1          -2.2060     0.0660    -0.4040 nc         1 4F7      -0.674000
      8 C7          -3.4360     0.5590    -0.0700 cc         1 4F7       0.300500
      9 C8          -3.3850     1.8710     0.3220 cd         1 4F7      -0.214000
     10 C9          -1.3740     1.0800    -0.2320 cd         1 4F7       0.401800
     11 N2          -2.0420     2.2060     0.2120 na         1 4F7      -0.295500
     12 C10          0.1110     0.9920    -0.4720 c3         1 4F7      -0.092700
     13 C11          0.9070     0.6210     0.8040 c3         1 4F7      -0.120700
     14 C12          2.4080     0.5370     0.5580 ca         1 4F7       0.313300
     15 C13          3.2580     1.6570     0.7560 ca         1 4F7       0.302900
     16 C14          5.0880     0.4020     0.1130 ca         1 4F7       0.217000
     17 C15          6.4680     0.2680    -0.1350 ca         1 4F7      -0.073000
     18 C16          7.0090    -0.9520    -0.5740 ca         1 4F7      -0.103000
     19 C17          6.1710    -2.0590    -0.7710 ca         1 4F7      -0.100000
     20 C18          4.7920    -1.9460    -0.5290 ca         1 4F7      -0.077000
     21 C19          4.2290    -0.7330    -0.0890 ca         1 4F7       0.232000
     22 N3           4.5990     1.5990     0.5370 nb         1 4F7      -0.623000
     23 N4           2.8890    -0.6620     0.1340 nb         1 4F7      -0.639000
     24 H1          -3.6990    -2.1340    -0.3610 ha         1 4F7       0.118000
     25 H2          -5.7930    -3.4500    -0.4360 ha         1 4F7       0.110000
     26 H3          -8.0010    -2.3140    -0.2250 ha         1 4F7       0.110000
     27 H4          -8.1010     0.1600     0.0520 ha         1 4F7       0.110000
     28 H5          -6.0280     1.4940     0.1220 ha         1 4F7       0.118000
     29 H7          -4.1530     2.5560     0.6610 h4         1 4F7       0.159000
     30 H8          -1.6120     3.1000     0.4200 hn         1 4F7       0.351000
     31 H9           0.3140     0.2470    -1.2510 hc         1 4F7       0.062700
     32 H10          0.4760     1.9500    -0.8610 hc         1 4F7       0.062700
     33 H11          0.7020     1.3630     1.5850 hc         1 4F7       0.071200
     34 H12          0.5380    -0.3370     1.1910 hc         1 4F7       0.071200
     35 H13          2.8580     2.6120     1.0930 h4         1 4F7       0.029100
     36 H14          7.1230     1.1220     0.0150 ha         1 4F7       0.133000
     37 H15          8.0780    -1.0370    -0.7600 ha         1 4F7       0.119000
     38 H16          6.5890    -3.0040    -1.1110 ha         1 4F7       0.119000
     39 H17          4.1480    -2.8080    -0.6840 ha         1 4F7       0.133000
@<TRIPOS>BOND
     1     1     2 ar  
     2     1     6 ar  
     3     1    24 1   
     4     2     3 ar  
     5     2    25 1   
     6     3     4 ar  
     7     3    26 1   
     8     4     5 ar  
     9     4    27 1   
    10     5     6 ar  
    11     5    28 1   
    12     6     8 1   
    13     7     8 1   
    14     7    10 2   
    15     8     9 2   
    16     9    11 1   
    17     9    29 1   
    18    10    11 1   
    19    10    12 1   
    20    11    30 1   
    21    12    13 1   
    22    12    31 1   
    23    12    32 1   
    24    13    14 1   
    25    13    33 1   
    26    13    34 1   
    27    14    15 ar  
    28    14    23 ar  
    29    15    22 ar  
    30    15    35 1   
    31    16    17 ar  
    32    16    21 ar  
    33    16    22 ar  
    34    17    18 ar  
    35    17    36 1   
    36    18    19 ar  
    37    18    37 1   
    38    19    20 ar  
    39    19    38 1   
    40    20    21 ar  
    41    20    39 1   
    42    21    23 ar  
@<TRIPOS>SUBSTRUCTURE
     1 4F7         1 TEMP              0 ****  ****    0 ROOT
