@<TRIPOS>MOLECULE
4F8
   23    24     1     0     0
SMALL
No Charge or Current Charge


@<TRIPOS>ATOM
      1 N4C        -40.9410    18.1080    16.0650 nc         1 4F8      -0.677000
      2 C5C        -42.1340    18.7150    15.6850 cc         1 4F8       0.237500
      3 C6C        -42.2800    18.6010    14.3020 cd         1 4F8      -0.195600
      4 C7C        -43.4100    18.9690    13.3910 c          1 4F8       0.730600
      5 O8C        -44.5010    19.3030    13.8160 o          1 4F8      -0.730500
      6 O9C        -43.2110    18.8220    12.1930 o          1 4F8      -0.730500
      7 C1D        -39.0320    16.9750    14.9620 ca         1 4F8      -0.025500
      8 C2D        -38.3360    16.7170    16.1660 ca         1 4F8      -0.127000
      9 C3D        -37.0970    16.0530    16.1520 ca         1 4F8      -0.118500
     10 C4D        -36.5360    15.6370    14.9360 ca         1 4F8      -0.174000
     11 C5D        -37.2130    15.8850    13.7330 ca         1 4F8      -0.118500
     12 C6D        -38.4530    16.5490    13.7450 ca         1 4F8      -0.127000
     13 C7D        -40.3400    17.6760    14.9730 cd         1 4F8       0.315000
     14 O          -43.9860    20.1320    16.3620 o          1 4F8      -0.738500
     15 O2         -42.7910    19.3090    17.9000 o          1 4F8      -0.738500
     16 N3         -41.1060    17.9820    13.8730 na         1 4F8      -0.278500
     17 C6         -43.0560    19.4160    16.7050 c          1 4F8       0.660500
     18 H3         -40.8750    17.7520    12.9150 hn         1 4F8       0.341000
     19 H2D        -38.7550    17.0330    17.1190 ha         1 4F8       0.124500
     20 H6D        -38.9580    16.7290    12.7990 ha         1 4F8       0.124500
     21 H3D        -36.5730    15.8620    17.0860 ha         1 4F8       0.083500
     22 H4D        -35.5770    15.1230    14.9250 ha         1 4F8       0.079000
     23 H5D        -36.7790    15.5630    12.7890 ha         1 4F8       0.083500
@<TRIPOS>BOND
     1     1     2 1   
     2     1    13 2   
     3     2     3 2   
     4     2    17 1   
     5     3     4 1   
     6     3    16 1   
     7     4     5 1   
     8     4     6 1   
     9     7     8 ar  
    10     7    12 ar  
    11     7    13 1   
    12     8     9 ar  
    13     8    19 1   
    14     9    10 ar  
    15     9    21 1   
    16    10    11 ar  
    17    10    22 1   
    18    11    12 ar  
    19    11    23 1   
    20    12    20 1   
    21    13    16 1   
    22    14    17 1   
    23    15    17 1   
    24    16    18 1   
@<TRIPOS>SUBSTRUCTURE
     1 4F8         1 TEMP              0 ****  ****    0 ROOT
