@<TRIPOS>MOLECULE
4F8
   23    24     1     0     0
SMALL
abcg2


@<TRIPOS>ATOM
      1 N4C        -40.8870    18.2230    16.0860 nc         1 4F8      -0.677000
      2 C5C        -42.0980    18.7410    15.7010 cc         1 4F8       0.237500
      3 C6C        -42.3030    18.5060    14.3540 cd         1 4F8      -0.195600
      4 C7C        -43.4040    18.8160    13.3930 c          1 4F8       0.730600
      5 O8C        -44.4030    19.4360    13.8350 o          1 4F8      -0.730500
      6 O9C        -43.2250    18.4180    12.2080 o          1 4F8      -0.730500
      7 C1D        -39.0450    17.0070    14.9490 ca         1 4F8      -0.025500
      8 C2D        -38.3160    16.8250    16.1320 ca         1 4F8      -0.127000
      9 C3D        -37.0810    16.1940    16.1110 ca         1 4F8      -0.118500
     10 C4D        -36.5470    15.7300    14.9110 ca         1 4F8      -0.174000
     11 C5D        -37.2640    15.9060    13.7310 ca         1 4F8      -0.118500
     12 C6D        -38.5000    16.5380    13.7470 ca         1 4F8      -0.127000
     13 C7D        -40.3430    17.6750    14.9980 cd         1 4F8       0.315000
     14 O          -42.8040    20.6810    16.8420 o          1 4F8      -0.738500
     15 O2         -43.7830    18.7240    17.3520 o          1 4F8      -0.738500
     16 N3         -41.1730    17.8310    13.9400 na         1 4F8      -0.278500
     17 C6         -42.9790    19.4440    16.7110 c          1 4F8       0.660500
     18 H3         -41.0450    17.5200    12.9890 hn         1 4F8       0.341000
     19 H2D        -38.7310    17.1830    17.0640 ha         1 4F8       0.124500
     20 H6D        -39.0340    16.6660    12.8150 ha         1 4F8       0.124500
     21 H3D        -36.5320    16.0610    17.0350 ha         1 4F8       0.083500
     22 H4D        -35.5840    15.2370    14.8960 ha         1 4F8       0.079000
     23 H5D        -36.8580    15.5510    12.7920 ha         1 4F8       0.083500
@<TRIPOS>BOND
     1     1     2 1   
     2     1    13 2   
     3     2     3 2   
     4     2    17 1   
     5     3     4 1   
     6     3    16 1   
     7     4     5 1   
     8     4     6 1   
     9     7     8 ar  
    10     7    12 ar  
    11     7    13 1   
    12     8     9 ar  
    13     8    19 1   
    14     9    10 ar  
    15     9    21 1   
    16    10    11 ar  
    17    10    22 1   
    18    11    12 ar  
    19    11    23 1   
    20    12    20 1   
    21    13    16 1   
    22    14    17 1   
    23    15    17 1   
    24    16    18 1   
@<TRIPOS>SUBSTRUCTURE
     1 4F8         1 TEMP              0 ****  ****    0 ROOT
