@<TRIPOS>MOLECULE
4F9
   18    19     1     0     0
SMALL
No Charge or Current Charge


@<TRIPOS>ATOM
      1 C7           1.2170     1.2100     0.0060 ca         1 4F9      -0.165000
      2 C4           1.1620    -1.1920     0.0060 ca         1 4F9      -0.165000
      3 C6           2.6190     1.1330     0.0080 ca         1 4F9       0.341900
      4 C5           2.5670    -1.1790     0.0070 ca         1 4F9       0.341900
      5 C2          -1.8420     1.1520     0.0040 cc         1 4F9       0.266900
      6 C           -3.1680    -0.5470     0.0020 cd         1 4F9       0.401400
      7 C3           0.4580     0.0250     0.0050 ca         1 4F9       0.048000
      8 C1          -1.0150     0.0580     0.0040 cd         1 4F9      -0.176000
      9 N2           3.2930    -0.0390     0.0080 nb         1 4F9      -0.663000
     10 N           -1.8740    -1.0310     0.0030 na         1 4F9      -0.288500
     11 N1          -3.1580     0.7800     0.0020 nc         1 4F9      -0.672000
     12 H1           0.7400     2.1850     0.0060 ha         1 4F9       0.119500
     13 H2           0.6420    -2.1450     0.0050 ha         1 4F9       0.119500
     14 H3           3.2230     2.0400     0.0090 h4         1 4F9       0.020100
     15 H4           3.1290    -2.1120     0.0070 h4         1 4F9       0.020100
     16 H6          -4.0350    -1.1980     0.0010 h5         1 4F9       0.058100
     17 H7          -1.6230    -2.0120     0.0030 hn         1 4F9       0.354000
     18 H5          -1.5760     2.2020     0.0040 h4         1 4F9       0.040100
@<TRIPOS>BOND
     1     1     3 ar  
     2     1     7 ar  
     3     1    12 1   
     4     2     4 ar  
     5     2     7 ar  
     6     2    13 1   
     7     3     9 ar  
     8     3    14 1   
     9     4     9 ar  
    10     4    15 1   
    11     5     8 2   
    12     5    11 1   
    13     5    18 1   
    14     6    10 1   
    15     6    11 2   
    16     6    16 1   
    17     7     8 1   
    18     8    10 1   
    19    10    17 1   
@<TRIPOS>SUBSTRUCTURE
     1 4F9         1 TEMP              0 ****  ****    0 ROOT
