@<TRIPOS>MOLECULE
4F9
   18    19     1     0     0
SMALL
abcg2


@<TRIPOS>ATOM
      1 C7           1.2120     1.1930     0.0040 ca         1 4F9      -0.165000
      2 C4           1.1420    -1.1830     0.0080 ca         1 4F9      -0.165000
      3 C6           2.5910     1.0970     0.0050 ca         1 4F9       0.341900
      4 C5           2.5270    -1.1660     0.0090 ca         1 4F9       0.341900
      5 C2          -1.8610     1.1700     0.0080 cc         1 4F9       0.266900
      6 C           -3.1000    -0.5540     0.0010 cd         1 4F9       0.401400
      7 C3           0.4450     0.0250     0.0050 ca         1 4F9       0.048000
      8 C1          -1.0040     0.0940     0.0050 cd         1 4F9      -0.176000
      9 N2           3.2550    -0.0560     0.0080 nb         1 4F9      -0.663000
     10 N           -1.8330    -0.9980     0.0000 na         1 4F9      -0.288500
     11 N1          -3.1550     0.7560     0.0050 nc         1 4F9      -0.672000
     12 H1           0.7520     2.1720     0.0020 ha         1 4F9       0.119500
     13 H2           0.6360    -2.1400     0.0090 ha         1 4F9       0.119500
     14 H3           3.1910     2.0000     0.0040 h4         1 4F9       0.020100
     15 H4           3.0720    -2.1040     0.0110 h4         1 4F9       0.020100
     16 H6          -3.9450    -1.2260    -0.0030 h5         1 4F9       0.058100
     17 H7          -1.5640    -1.9690    -0.0040 hn         1 4F9       0.354000
     18 H5          -1.6040     2.2180     0.0120 h4         1 4F9       0.040100
@<TRIPOS>BOND
     1     1     3 ar  
     2     1     7 ar  
     3     1    12 1   
     4     2     4 ar  
     5     2     7 ar  
     6     2    13 1   
     7     3     9 ar  
     8     3    14 1   
     9     4     9 ar  
    10     4    15 1   
    11     5     8 2   
    12     5    11 1   
    13     5    18 1   
    14     6    10 1   
    15     6    11 2   
    16     6    16 1   
    17     7     8 1   
    18     8    10 1   
    19    10    17 1   
@<TRIPOS>SUBSTRUCTURE
     1 4F9         1 TEMP              0 ****  ****    0 ROOT
