@<TRIPOS>MOLECULE
4FA
   19    19     1     0     0
SMALL
No Charge or Current Charge


@<TRIPOS>ATOM
      1 C1          -0.0040    -0.3970     0.4550 ca         1 4FA      -0.098300
      2 C2           1.2080    -0.2540    -0.2510 ca         1 4FA      -0.081000
      3 C3          -1.2280    -0.2720    -0.2330 ca         1 4FA      -0.081000
      4 C4           0.0100    -0.6770     1.9530 c3         1 4FA      -0.035100
      5 C5           1.1950     0.0090    -1.6330 ca         1 4FA      -0.150500
      6 C6          -1.2390    -0.0080    -1.6140 ca         1 4FA      -0.150500
      7 C7          -0.0280     0.1310    -2.3090 ca         1 4FA       0.169000
      8 F8          -0.0400     0.3840    -3.6360 f          1 4FA      -0.180000
      9 C13          0.0070     0.6200     2.7850 c3         1 4FA       0.163600
     10 O14          0.0200     0.3050     4.1830 oh         1 4FA      -0.663000
     11 HC2          2.1590    -0.3450     0.2700 ha         1 4FA       0.117000
     12 HC3         -2.1690    -0.3770     0.3030 ha         1 4FA       0.117000
     13 HC41         0.8930    -1.2700     2.2180 hc         1 4FA       0.061200
     14 HC42        -0.8610    -1.2830     2.2310 hc         1 4FA       0.061200
     15 HC5          2.1290     0.1190    -2.1780 ha         1 4FA       0.132000
     16 HC6         -2.1830     0.0880    -2.1450 ha         1 4FA       0.132000
     17 H131        -0.8880     1.2070     2.5350 h1         1 4FA       0.020700
     18 H132         0.8880     1.2200     2.5220 h1         1 4FA       0.020700
     19 H14          0.0170     1.1610     4.6680 ho         1 4FA       0.445000
@<TRIPOS>BOND
     1     1     2 ar  
     2     1     3 ar  
     3     1     4 1   
     4     2     5 ar  
     5     2    11 1   
     6     3     6 ar  
     7     3    12 1   
     8     4     9 1   
     9     4    13 1   
    10     4    14 1   
    11     5     7 ar  
    12     5    15 1   
    13     6     7 ar  
    14     6    16 1   
    15     7     8 1   
    16     9    10 1   
    17     9    17 1   
    18     9    18 1   
    19    10    19 1   
@<TRIPOS>SUBSTRUCTURE
     1 4FA         1 TEMP              0 ****  ****    0 ROOT
