@<TRIPOS>MOLECULE
4FA
   19    19     1     0     0
SMALL
bcc


@<TRIPOS>ATOM
      1 C1           0.0090    -0.4170     0.4700 ca         1 4FA      -0.098300
      2 C2           1.1940    -0.2800    -0.2480 ca         1 4FA      -0.099000
      3 C3          -1.1970    -0.2650    -0.2120 ca         1 4FA      -0.099000
      4 C4           0.0280    -0.6800     1.9500 c3         1 4FA      -0.035100
      5 C5           1.1880     0.0000    -1.6080 ca         1 4FA      -0.168500
      6 C6          -1.2280     0.0170    -1.5710 ca         1 4FA      -0.168500
      7 C7          -0.0290     0.1450    -2.2450 ca         1 4FA       0.133900
      8 F8          -0.0480     0.4150    -3.5620 f          1 4FA      -0.144900
      9 C13         -0.0150     0.6220     2.7380 c3         1 4FA       0.140400
     10 O14          0.0030     0.3130     4.1140 oh         1 4FA      -0.600800
     11 HC2          2.1440    -0.4010     0.2580 ha         1 4FA       0.135000
     12 HC3         -2.1330    -0.3730     0.3230 ha         1 4FA       0.135000
     13 HC41         0.9300    -1.2340     2.2200 hc         1 4FA       0.061200
     14 HC42        -0.8280    -1.2990     2.2310 hc         1 4FA       0.061200
     15 HC5          2.1130     0.1020    -2.1600 ha         1 4FA       0.150000
     16 HC6         -2.1680     0.1330    -2.0940 ha         1 4FA       0.150000
     17 H131        -0.9200     1.1790     2.4610 h1         1 4FA       0.020700
     18 H132         0.8420     1.2450     2.4510 h1         1 4FA       0.020700
     19 H14         -0.0000     1.1390     4.6070 ho         1 4FA       0.406000
@<TRIPOS>BOND
     1     1     2 ar  
     2     1     3 ar  
     3     1     4 1   
     4     2     5 ar  
     5     2    11 1   
     6     3     6 ar  
     7     3    12 1   
     8     4     9 1   
     9     4    13 1   
    10     4    14 1   
    11     5     7 ar  
    12     5    15 1   
    13     6     7 ar  
    14     6    16 1   
    15     7     8 1   
    16     9    10 1   
    17     9    17 1   
    18     9    18 1   
    19    10    19 1   
@<TRIPOS>SUBSTRUCTURE
     1 4FA         1 TEMP              0 ****  ****    0 ROOT
