@<TRIPOS>MOLECULE
4FB
   16    16     1     0     0
SMALL
bcc


@<TRIPOS>ATOM
      1 O           19.6000    15.2320    34.3710 o          1 4FB      -0.826800
      2 C           19.4900    15.2880    33.1330 c          1 4FB       0.944600
      3 CA          20.1110    14.1500    32.2850 c5         1 4FB       0.013500
      4 CBX         19.0550    13.4330    31.4300 c5         1 4FB      -0.118400
      5 CGX         18.4720    12.4210    32.3960 c5         1 4FB       0.143600
      6 FGX         17.3690    12.9730    33.0650 f          1 4FB      -0.244300
      7 CDX         19.6120    12.1610    33.3980 c5         1 4FB       0.124800
      8 N           20.7060    13.0750    33.0750 n7         1 4FB      -0.737200
      9 OXT         18.9390    16.1910    32.4690 o          1 4FB      -0.826800
     10 HA          20.8850    14.6000    31.6550 h1         1 4FB       0.040700
     11 HBX1        18.3010    14.0810    30.9840 hc         1 4FB       0.041200
     12 HBX2        19.5470    12.8950    30.6150 hc         1 4FB       0.041200
     13 HGX         18.1110    11.5130    31.9100 h1         1 4FB       0.017700
     14 HDX1        19.2370    12.3410    34.4080 h1         1 4FB       0.045200
     15 HDX2        19.9540    11.1270    33.3590 h1         1 4FB       0.045200
     16 HT1         21.3610    12.5830    32.4800 hn         1 4FB       0.294800
@<TRIPOS>BOND
     1     1     2 1   
     2     2     3 1   
     3     2     9 1   
     4     3     4 1   
     5     3     8 1   
     6     3    10 1   
     7     4     5 1   
     8     4    11 1   
     9     4    12 1   
    10     5     6 1   
    11     5     7 1   
    12     5    13 1   
    13     7     8 1   
    14     7    14 1   
    15     7    15 1   
    16     8    16 1   
@<TRIPOS>SUBSTRUCTURE
     1 4FB         1 TEMP              0 ****  ****    0 ROOT
