@<TRIPOS>MOLECULE
4FB
   16    16     1     0     0
SMALL
No Charge or Current Charge


@<TRIPOS>ATOM
      1 O           19.5890    15.3060    34.3890 o          1 4FB      -0.721500
      2 C           19.4500    15.2940    33.1710 c          1 4FB       0.734000
      3 CA          20.1460    14.1560    32.2890 c5         1 4FB       0.013500
      4 CBX         19.0950    13.4250    31.4020 c5         1 4FB      -0.118400
      5 CGX         18.4650    12.4080    32.3970 c5         1 4FB       0.162300
      6 FGX         17.3350    12.9570    33.0110 f          1 4FB      -0.263000
      7 CDX         19.6090    12.1680    33.4410 c5         1 4FB       0.124800
      8 N           20.7740    12.9870    32.9980 n7         1 4FB      -0.792400
      9 OXT         18.8410    16.1910    32.5980 o          1 4FB      -0.721500
     10 HA          20.8920    14.6650    31.6640 h1         1 4FB       0.040700
     11 HBX1        18.3550    14.0980    30.9540 hc         1 4FB       0.041200
     12 HBX2        19.5850    12.8980    30.5740 hc         1 4FB       0.041200
     13 HGX         18.1560    11.4830    31.8940 h1         1 4FB       0.017700
     14 HDX1        19.2810    12.4830    34.4410 h1         1 4FB       0.045200
     15 HDX2        19.8800    11.1050    33.5070 h1         1 4FB       0.045200
     16 HT1         21.2990    12.4430    32.3030 hn         1 4FB       0.350000
@<TRIPOS>BOND
     1     1     2 1   
     2     2     3 1   
     3     2     9 1   
     4     3     4 1   
     5     3     8 1   
     6     3    10 1   
     7     4     5 1   
     8     4    11 1   
     9     4    12 1   
    10     5     6 1   
    11     5     7 1   
    12     5    13 1   
    13     7     8 1   
    14     7    14 1   
    15     7    15 1   
    16     8    16 1   
@<TRIPOS>SUBSTRUCTURE
     1 4FB         1 TEMP              0 ****  ****    0 ROOT
