@<TRIPOS>MOLECULE
4FC
   24    25     1     0     0
SMALL
No Charge or Current Charge


@<TRIPOS>ATOM
      1 C1          -3.6060     1.1300     0.4300 ca         1 4FC      -0.156000
      2 C2          -4.3060    -0.0020    -0.0080 ca         1 4FC       0.141000
      3 C3          -3.6100    -1.1370    -0.4480 ca         1 4FC      -0.156000
      4 C4          -2.2040    -1.1390    -0.4500 ca         1 4FC      -0.089000
      5 C5          -1.4680    -0.0060    -0.0130 cp         1 4FC      -0.001000
      6 C6          -2.1990     1.1280     0.4270 ca         1 4FC      -0.089000
      7 C7           0.7640    -1.1880     0.2610 ca         1 4FC      -0.124000
      8 C8           0.0300    -0.0090    -0.0160 cp         1 4FC      -0.092000
      9 C9           0.7660     1.1690    -0.2940 ca         1 4FC      -0.124000
     10 C10          2.1720     1.1690    -0.2980 ca         1 4FC      -0.092500
     11 C11          2.8960    -0.0130    -0.0210 ca         1 4FC      -0.117600
     12 C12          2.1690    -1.1920     0.2590 ca         1 4FC      -0.092500
     13 F1          -5.6570    -0.0010    -0.0050 f          1 4FC      -0.197000
     14 C13          4.4190    -0.0150    -0.0240 c          1 4FC       0.711600
     15 O1           5.0060     1.0300    -0.2700 o          1 4FC      -0.717500
     16 O2           5.0040    -1.0610     0.2200 o          1 4FC      -0.717500
     17 HA1         -4.1500     2.0060     0.7730 ha         1 4FC       0.119000
     18 HA2         -4.1590    -2.0110    -0.7890 ha         1 4FC       0.119000
     19 HB1         -1.6790    -2.0220    -0.8070 ha         1 4FC       0.120000
     20 HB2         -1.6710     2.0100     0.7820 ha         1 4FC       0.120000
     21 HC1          0.2440     2.0940    -0.5260 ha         1 4FC       0.088000
     22 HD2          2.6970     2.0950    -0.5210 ha         1 4FC       0.129000
     23 HD1          2.6930    -2.1200     0.4800 ha         1 4FC       0.129000
     24 HC2          0.2400    -2.1110     0.4940 ha         1 4FC       0.088000
@<TRIPOS>BOND
     1     1     2 ar  
     2     1     6 ar  
     3     1    17 1   
     4     2     3 ar  
     5     2    13 1   
     6     3     4 ar  
     7     3    18 1   
     8     4     5 ar  
     9     4    19 1   
    10     5     6 ar  
    11     5     8 1   
    12     6    20 1   
    13     7     8 ar  
    14     7    12 ar  
    15     7    24 1   
    16     8     9 ar  
    17     9    10 ar  
    18     9    21 1   
    19    10    11 ar  
    20    10    22 1   
    21    11    12 ar  
    22    11    14 1   
    23    12    23 1   
    24    14    15 1   
    25    14    16 1   
@<TRIPOS>SUBSTRUCTURE
     1 4FC         1 TEMP              0 ****  ****    0 ROOT
