@<TRIPOS>MOLECULE
4FC
   24    25     1     0     0
SMALL
bcc


@<TRIPOS>ATOM
      1 C1          -3.5540     1.1160     0.4450 ca         1 4FC      -0.174000
      2 C2          -4.2280    -0.0020    -0.0080 ca         1 4FC       0.105900
      3 C3          -3.5600    -1.1220    -0.4640 ca         1 4FC      -0.174000
      4 C4          -2.1730    -1.1150    -0.4620 ca         1 4FC      -0.107000
      5 C5          -1.4520    -0.0070    -0.0130 cp         1 4FC      -0.001000
      6 C6          -2.1680     1.1030     0.4390 ca         1 4FC      -0.107000
      7 C7           0.7420    -1.1690     0.2810 ca         1 4FC      -0.142000
      8 C8           0.0240    -0.0090    -0.0150 cp         1 4FC      -0.092000
      9 C9           0.7440     1.1490    -0.3140 ca         1 4FC      -0.142000
     10 C10          2.1300     1.1450    -0.3140 ca         1 4FC      -0.110500
     11 C11          2.8460    -0.0130    -0.0210 ca         1 4FC      -0.117600
     12 C12          2.1280    -1.1680     0.2750 ca         1 4FC      -0.110500
     13 F1          -5.5710     0.0000    -0.0060 f          1 4FC      -0.161900
     14 C13          4.3690    -0.0140    -0.0240 c          1 4FC       0.922200
     15 O1           4.9270     1.0770    -0.2470 o          1 4FC      -0.822800
     16 O2           4.9260    -1.1060     0.1970 o          1 4FC      -0.822800
     17 HA1         -4.0980     1.9780     0.8060 ha         1 4FC       0.137000
     18 HA2         -4.1080    -1.9830    -0.8230 ha         1 4FC       0.137000
     19 HB1         -1.6490    -1.9840    -0.8380 ha         1 4FC       0.138000
     20 HB2         -1.6400     1.9710     0.8140 ha         1 4FC       0.138000
     21 HC1          0.2170     2.0600    -0.5720 ha         1 4FC       0.106000
     22 HD2          2.6640     2.0540    -0.5560 ha         1 4FC       0.147000
     23 HD1          2.6600    -2.0780     0.5170 ha         1 4FC       0.147000
     24 HC2          0.2140    -2.0790     0.5400 ha         1 4FC       0.106000
@<TRIPOS>BOND
     1     1     2 ar  
     2     1     6 ar  
     3     1    17 1   
     4     2     3 ar  
     5     2    13 1   
     6     3     4 ar  
     7     3    18 1   
     8     4     5 ar  
     9     4    19 1   
    10     5     6 ar  
    11     5     8 1   
    12     6    20 1   
    13     7     8 ar  
    14     7    12 ar  
    15     7    24 1   
    16     8     9 ar  
    17     9    10 ar  
    18     9    21 1   
    19    10    11 ar  
    20    10    22 1   
    21    11    12 ar  
    22    11    14 1   
    23    12    23 1   
    24    14    15 1   
    25    14    16 1   
@<TRIPOS>SUBSTRUCTURE
     1 4FC         1 TEMP              0 ****  ****    0 ROOT
