@<TRIPOS>MOLECULE
4FD
   30    31     1     0     0
SMALL
abcg2


@<TRIPOS>ATOM
      1 N1           5.4500    -1.1040    -0.0580 nt         1 4FD      -0.605000
      2 C4           3.3000    -0.0340     0.1370 ca         1 4FD      -0.281600
      3 C5           2.5700     1.1590     0.1320 ca         1 4FD       0.022000
      4 C6           1.2020     1.1390     0.0250 ca         1 4FD      -0.254000
      5 C7           0.5540    -0.1120    -0.0510 ca         1 4FD       0.639900
      6 C10         -3.1140     0.4130    -0.1340 ca         1 4FD      -0.119300
      7 C13         -5.7270    -0.5250     0.1620 ca         1 4FD      -0.097000
      8 C15         -3.6340     0.1580     1.1330 ca         1 4FD      -0.090000
      9 C17          2.5600    -1.2090     0.0560 ca         1 4FD       0.422900
     10 C12         -5.2150    -0.2770    -1.1040 ca         1 4FD      -0.113000
     11 C14         -4.9330    -0.3060     1.2820 ca         1 4FD      -0.113000
     12 C11         -3.9140     0.1890    -1.2490 ca         1 4FD      -0.090000
     13 C2           4.7770     0.0140     0.2670 c          1 4FD       0.632700
     14 C9          -1.6950     0.8860    -0.2870 c3         1 4FD       0.280100
     15 N16          1.2440    -1.2590    -0.0330 nb         1 4FD      -0.766000
     16 N8          -0.7860    -0.2280    -0.1300 nu         1 4FD      -0.931100
     17 O3           5.3430     1.0270     0.6630 o          1 4FD      -0.614100
     18 H1           5.0220    -1.8730    -0.5420 hn         1 4FD       0.310500
     19 H2           6.4560    -1.1050    -0.0130 hn         1 4FD       0.310500
     20 H3           3.0860     2.1080     0.2010 ha         1 4FD       0.137000
     21 H4           0.6410     2.0630    -0.0010 ha         1 4FD       0.125000
     22 H5          -6.7410    -0.8860     0.2770 ha         1 4FD       0.116000
     23 H6          -3.0210     0.3290     2.0100 ha         1 4FD       0.116500
     24 H7           3.0510    -2.1780     0.0830 h4         1 4FD       0.010100
     25 H8          -5.8280    -0.4440    -1.9800 ha         1 4FD       0.116500
     26 H9          -5.3270    -0.4940     2.2720 ha         1 4FD       0.116500
     27 H10         -3.5190     0.3830    -2.2390 ha         1 4FD       0.116500
     28 H11         -1.5640     1.3710    -1.2610 h1         1 4FD       0.048200
     29 H12         -1.4800     1.6390     0.4760 h1         1 4FD       0.048200
     30 H13         -1.1390    -1.1550    -0.3120 hn         1 4FD       0.506000
@<TRIPOS>BOND
     1     1    13 1   
     2     1    18 1   
     3     1    19 1   
     4     2     3 ar  
     5     2     9 ar  
     6     2    13 1   
     7     3     4 ar  
     8     3    20 1   
     9     4     5 ar  
    10     4    21 1   
    11     5    15 ar  
    12     5    16 1   
    13     6     8 ar  
    14     6    12 ar  
    15     6    14 1   
    16     7    10 ar  
    17     7    11 ar  
    18     7    22 1   
    19     8    11 ar  
    20     8    23 1   
    21     9    15 ar  
    22     9    24 1   
    23    10    12 ar  
    24    10    25 1   
    25    11    26 1   
    26    12    27 1   
    27    13    17 2   
    28    14    16 1   
    29    14    28 1   
    30    14    29 1   
    31    16    30 1   
@<TRIPOS>SUBSTRUCTURE
     1 4FD         1 TEMP              0 ****  ****    0 ROOT
