@<TRIPOS>MOLECULE
4FD
   30    31     1     0     0
SMALL
No Charge or Current Charge


@<TRIPOS>ATOM
      1 N1           5.4050    -1.2810    -0.1180 nt         1 4FD      -0.605000
      2 C4           3.3310     0.0160     0.0070 ca         1 4FD      -0.281600
      3 C5           2.6880     1.2660     0.1020 ca         1 4FD       0.022000
      4 C6           1.2880     1.2890     0.1310 ca         1 4FD      -0.254000
      5 C7           0.6010     0.0750     0.0620 ca         1 4FD       0.639900
      6 C10         -3.1460     0.4280    -0.0210 ca         1 4FD      -0.119300
      7 C13         -5.7390    -0.6830    -0.0070 ca         1 4FD      -0.097000
      8 C15         -3.8240     0.2200     1.1970 ca         1 4FD      -0.090000
      9 C17          2.5330    -1.1410    -0.0530 ca         1 4FD       0.422900
     10 C12         -5.0670    -0.4800    -1.2240 ca         1 4FD      -0.113000
     11 C14         -5.1170    -0.3330     1.2040 ca         1 4FD      -0.113000
     12 C11         -3.7740     0.0730    -1.2320 ca         1 4FD      -0.090000
     13 C2           4.8250    -0.0670    -0.0270 c          1 4FD       0.632700
     14 C9          -1.7470     1.0270    -0.0280 c3         1 4FD       0.280100
     15 N16          1.1830    -1.1150    -0.0250 nb         1 4FD      -0.766000
     16 N8          -0.7540    -0.0400     0.0850 nu         1 4FD      -0.931100
     17 O3           5.5320     0.9250     0.0250 o          1 4FD      -0.614100
     18 H1           4.8440    -2.1180    -0.1620 hn         1 4FD       0.310500
     19 H2           6.4120    -1.3400    -0.1410 hn         1 4FD       0.310500
     20 H3           3.2550     2.1950     0.1530 ha         1 4FD       0.137000
     21 H4           0.7530     2.2300     0.2060 ha         1 4FD       0.125000
     22 H5          -6.7390    -1.1120    -0.0010 ha         1 4FD       0.116000
     23 H6          -3.3480     0.4860     2.1390 ha         1 4FD       0.116500
     24 H7           2.9750    -2.1340    -0.1260 h4         1 4FD       0.010100
     25 H8          -5.5470    -0.7520    -2.1620 ha         1 4FD       0.116500
     26 H9          -5.6350    -0.4920     2.1470 ha         1 4FD       0.116500
     27 H10         -3.2600     0.2250    -2.1790 ha         1 4FD       0.116500
     28 H11         -1.5940     1.5890    -0.9590 h1         1 4FD       0.048200
     29 H12         -1.6440     1.7320     0.8090 h1         1 4FD       0.048200
     30 H13         -1.0690    -0.9990    -0.0190 hn         1 4FD       0.506000
@<TRIPOS>BOND
     1     1    13 1   
     2     1    18 1   
     3     1    19 1   
     4     2     3 ar  
     5     2     9 ar  
     6     2    13 1   
     7     3     4 ar  
     8     3    20 1   
     9     4     5 ar  
    10     4    21 1   
    11     5    15 ar  
    12     5    16 1   
    13     6     8 ar  
    14     6    12 ar  
    15     6    14 1   
    16     7    10 ar  
    17     7    11 ar  
    18     7    22 1   
    19     8    11 ar  
    20     8    23 1   
    21     9    15 ar  
    22     9    24 1   
    23    10    12 ar  
    24    10    25 1   
    25    11    26 1   
    26    12    27 1   
    27    13    17 2   
    28    14    16 1   
    29    14    28 1   
    30    14    29 1   
    31    16    30 1   
@<TRIPOS>SUBSTRUCTURE
     1 4FD         1 TEMP              0 ****  ****    0 ROOT
