@<TRIPOS>MOLECULE
4FE
   23    23     1     0     0
SMALL
No Charge or Current Charge


@<TRIPOS>ATOM
      1 C8           4.4720     1.6860    -0.0830 c3         1 4FE       0.163900
      2 O4           3.8560     0.3850    -0.1070 os         1 4FE      -0.377100
      3 C5           2.4820     0.2180    -0.0800 ca         1 4FE       0.004100
      4 C6           1.5860     1.3080    -0.0280 ca         1 4FE      -0.150000
      5 C7           0.1980     1.0780    -0.0030 ca         1 4FE      -0.127000
      6 C2          -0.3160    -0.2350    -0.0290 ca         1 4FE       0.010200
      7 C3           0.5820    -1.3180    -0.0810 ca         1 4FE      -0.133000
      8 C1           1.9670    -1.0930    -0.1070 ca         1 4FE       0.112100
      9 C10         -1.7840    -0.5040    -0.0030 ce         1 4FE      -0.238200
     10 C4          -2.8290     0.3810     0.0470 cf         1 4FE      -0.212200
     11 C9          -4.2770     0.0120     0.0690 c          1 4FE       0.695200
     12 O2          -4.5890    -1.1700     0.0420 o          1 4FE      -0.723500
     13 O1          -5.0900     0.9220     0.1140 o          1 4FE      -0.723500
     14 H8           5.5650     1.5900    -0.1110 h1         1 4FE       0.031700
     15 H8A          4.1610     2.2810    -0.9520 h1         1 4FE       0.031700
     16 H8B          4.2020     2.2290     0.8320 h1         1 4FE       0.031700
     17 H6           1.9440     2.3340    -0.0060 ha         1 4FE       0.100000
     18 H7          -0.4710     1.9330     0.0370 ha         1 4FE       0.120000
     19 H3           0.2080    -2.3380    -0.1020 ha         1 4FE       0.130000
     20 HO3          3.7330    -1.7610    -0.1670 ho         1 4FE       0.467000
     21 H10         -2.0330    -1.5670    -0.0290 ha         1 4FE       0.192000
     22 H4          -2.6290     1.4490     0.0730 ha         1 4FE       0.142000
     23 O3           2.8290    -2.1490    -0.1570 oh         1 4FE      -0.546100
@<TRIPOS>BOND
     1     1     2 1   
     2     1    14 1   
     3     1    15 1   
     4     1    16 1   
     5     2     3 1   
     6     3     4 ar  
     7     3     8 ar  
     8     4     5 ar  
     9     4    17 1   
    10     5     6 ar  
    11     5    18 1   
    12     6     7 ar  
    13     6     9 1   
    14     7     8 ar  
    15     7    19 1   
    16     8    23 1   
    17     9    10 2   
    18     9    21 1   
    19    10    11 1   
    20    10    22 1   
    21    11    12 1   
    22    11    13 1   
    23    20    23 1   
@<TRIPOS>SUBSTRUCTURE
     1 4FE         1 TEMP              0 ****  ****    0 ROOT
