@<TRIPOS>MOLECULE
4FE
   23    23     1     0     0
SMALL
bcc


@<TRIPOS>ATOM
      1 C8           4.3900     1.6440    -0.0680 c3         1 4FE       0.140700
      2 O4           3.8040     0.3580    -0.1190 os         1 4FE      -0.353900
      3 C5           2.4580     0.2620    -0.0920 ca         1 4FE       0.004100
      4 C6           1.5720     1.3290    -0.0430 ca         1 4FE      -0.168000
      5 C7           0.2020     1.1050    -0.0160 ca         1 4FE      -0.145000
      6 C2          -0.3130    -0.1890    -0.0370 ca         1 4FE       0.010200
      7 C3           0.5900    -1.2570    -0.0880 ca         1 4FE      -0.151000
      8 C1           1.9560    -1.0490    -0.1160 ca         1 4FE       0.112100
      9 C10         -1.7460    -0.4870    -0.0030 ce         1 4FE      -0.188200
     10 C4          -2.7540     0.3870     0.0410 cf         1 4FE      -0.162200
     11 C9          -4.2060    -0.0270     0.0810 c          1 4FE       0.905800
     12 O2          -4.4660    -1.2470     0.0890 o          1 4FE      -0.828800
     13 O1          -5.0310     0.9110     0.1030 o          1 4FE      -0.828800
     14 H8           5.4670     1.4950    -0.0800 h1         1 4FE       0.031700
     15 H8A          4.1060     2.2510    -0.9310 h1         1 4FE       0.031700
     16 H8B          4.1150     2.1760     0.8460 h1         1 4FE       0.031700
     17 H6           1.9380     2.3470    -0.0240 ha         1 4FE       0.118000
     18 H7          -0.4610     1.9600     0.0240 ha         1 4FE       0.138000
     19 H3           0.2210    -2.2760    -0.1050 ha         1 4FE       0.148000
     20 HO3          3.7020    -1.8210    -0.1670 ho         1 4FE       0.428000
     21 H10         -2.0000    -1.5440    -0.0120 ha         1 4FE       0.142000
     22 H4          -2.5590     1.4560     0.0510 ha         1 4FE       0.092000
     23 O3           2.7830    -2.1140    -0.1660 oh         1 4FE      -0.507100
@<TRIPOS>BOND
     1     1     2 1   
     2     1    14 1   
     3     1    15 1   
     4     1    16 1   
     5     2     3 1   
     6     3     4 ar  
     7     3     8 ar  
     8     4     5 ar  
     9     4    17 1   
    10     5     6 ar  
    11     5    18 1   
    12     6     7 ar  
    13     6     9 1   
    14     7     8 ar  
    15     7    19 1   
    16     8    23 1   
    17     9    10 2   
    18     9    21 1   
    19    10    11 1   
    20    10    22 1   
    21    11    12 1   
    22    11    13 1   
    23    20    23 1   
@<TRIPOS>SUBSTRUCTURE
     1 4FE         1 TEMP              0 ****  ****    0 ROOT
