@<TRIPOS>MOLECULE
4FF
   24    25     1     0     0
SMALL
No Charge or Current Charge


@<TRIPOS>ATOM
      1 O14          3.1510     2.1240     0.1120 o          1 4FF      -0.717500
      2 C12          3.1540     0.8970     0.0770 c          1 4FF       0.629500
      3 O13          4.2110     0.2740     0.0750 o          1 4FF      -0.717500
      4 C10          1.8200     0.1510     0.0370 cc         1 4FF       0.220500
      5 C9           1.6850    -1.2250    -0.0040 cd         1 4FF      -0.179300
      6 N8           0.3200    -1.4570    -0.0300 na         1 4FF      -0.313500
      7 C7          -0.3210    -0.2330    -0.0050 cd         1 4FF       0.380000
      8 N11          0.5700     0.7450     0.0350 nc         1 4FF      -0.623000
      9 C6          -1.7870    -0.0160    -0.0200 ca         1 4FF      -0.070500
     10 C1          -2.3280     1.2910     0.0080 ca         1 4FF      -0.107000
     11 C2          -3.7190     1.4930    -0.0060 ca         1 4FF      -0.117500
     12 C3          -4.5900     0.3930    -0.0490 ca         1 4FF      -0.135000
     13 C4          -4.0690    -0.9090    -0.0780 ca         1 4FF      -0.117500
     14 C5          -2.6780    -1.1140    -0.0640 ca         1 4FF      -0.107000
     15 C15          2.7110    -2.3330    -0.0200 c3         1 4FF      -0.004800
     16 H8          -0.1400    -2.3570    -0.0620 hn         1 4FF       0.321000
     17 H151         3.3390    -2.3020     0.8780 hc         1 4FF       0.039367
     18 H152         2.2340    -3.3200    -0.0550 hc         1 4FF       0.039367
     19 H153         3.3650    -2.2520    -0.8960 hc         1 4FF       0.039367
     20 H1          -1.6710     2.1570     0.0420 ha         1 4FF       0.123000
     21 H5          -2.2990    -2.1330    -0.0870 ha         1 4FF       0.123000
     22 H2          -4.1210     2.5030     0.0160 ha         1 4FF       0.099000
     23 H3          -5.6660     0.5500    -0.0610 ha         1 4FF       0.096000
     24 H4          -4.7420    -1.7630    -0.1120 ha         1 4FF       0.099000
@<TRIPOS>BOND
     1     1     2 1   
     2     2     3 1   
     3     2     4 1   
     4     4     5 2   
     5     4     8 1   
     6     5     6 1   
     7     5    15 1   
     8     6     7 1   
     9     6    16 1   
    10     7     8 2   
    11     7     9 1   
    12     9    10 ar  
    13     9    14 ar  
    14    10    11 ar  
    15    10    20 1   
    16    11    12 ar  
    17    11    22 1   
    18    12    13 ar  
    19    12    23 1   
    20    13    14 ar  
    21    13    24 1   
    22    14    21 1   
    23    15    17 1   
    24    15    18 1   
    25    15    19 1   
@<TRIPOS>SUBSTRUCTURE
     1 4FF         1 TEMP              0 ****  ****    0 ROOT
