@<TRIPOS>MOLECULE
4FF
   24    25     1     0     0
SMALL
bcc


@<TRIPOS>ATOM
      1 O14          2.9710     2.1930     0.0000 o          1 4FF      -0.822800
      2 C12          3.0830     0.9540     0.0320 c          1 4FF       0.840100
      3 O13          4.1480     0.3010     0.0830 o          1 4FF      -0.822800
      4 C10          1.8110     0.1570     0.0090 cc         1 4FF       0.285800
      5 C9           1.6670    -1.2150    -0.0150 cd         1 4FF      -0.193900
      6 N8           0.3210    -1.4240    -0.0250 na         1 4FF      -0.313900
      7 C7          -0.3030    -0.2180    -0.0110 cd         1 4FF       0.380000
      8 N11          0.5780     0.7480     0.0080 nc         1 4FF      -0.623000
      9 C6          -1.7530    -0.0400    -0.0160 ca         1 4FF      -0.070500
     10 C1          -2.2770     1.2560    -0.0210 ca         1 4FF      -0.125000
     11 C2          -3.6460     1.4650    -0.0250 ca         1 4FF      -0.135500
     12 C3          -4.5210     0.3840    -0.0250 ca         1 4FF      -0.153000
     13 C4          -4.0100    -0.9060    -0.0210 ca         1 4FF      -0.135500
     14 C5          -2.6390    -1.1190    -0.0170 ca         1 4FF      -0.125000
     15 C15          2.6320    -2.3450    -0.0180 c3         1 4FF      -0.004800
     16 H8          -0.1160    -2.3330    -0.0560 hn         1 4FF       0.270700
     17 H151         2.8950    -2.6500     0.9970 hc         1 4FF       0.039367
     18 H152         2.2170    -3.2170    -0.5240 hc         1 4FF       0.039367
     19 H153         3.5510    -2.0550    -0.5170 hc         1 4FF       0.039367
     20 H1          -1.6010     2.1000    -0.0200 ha         1 4FF       0.141000
     21 H5          -2.2760    -2.1390    -0.0120 ha         1 4FF       0.141000
     22 H2          -4.0320     2.4760    -0.0280 ha         1 4FF       0.117000
     23 H3          -5.5910     0.5460    -0.0290 ha         1 4FF       0.114000
     24 H4          -4.6810    -1.7550    -0.0210 ha         1 4FF       0.117000
@<TRIPOS>BOND
     1     1     2 1   
     2     2     3 1   
     3     2     4 1   
     4     4     5 2   
     5     4     8 1   
     6     5     6 1   
     7     5    15 1   
     8     6     7 1   
     9     6    16 1   
    10     7     8 2   
    11     7     9 1   
    12     9    10 ar  
    13     9    14 ar  
    14    10    11 ar  
    15    10    20 1   
    16    11    12 ar  
    17    11    22 1   
    18    12    13 ar  
    19    12    23 1   
    20    13    14 ar  
    21    13    24 1   
    22    14    21 1   
    23    15    17 1   
    24    15    18 1   
    25    15    19 1   
@<TRIPOS>SUBSTRUCTURE
     1 4FF         1 TEMP              0 ****  ****    0 ROOT
