@<TRIPOS>MOLECULE
4FG
   17    17     1     0     0
SMALL
No Charge or Current Charge


@<TRIPOS>ATOM
      1 C2          -0.0770     1.2970    -0.0200 ca         1 4FG       0.021000
      2 C3          -1.4780     1.2470    -0.0460 ca         1 4FG      -0.250000
      3 C5          -0.1070    -1.1220    -0.0290 ca         1 4FG       0.418900
      4 C1           0.6310     0.0780    -0.0120 ca         1 4FG      -0.273600
      5 C4          -2.0920    -0.0030    -0.0650 ca         1 4FG       0.628900
      6 C            2.1270     0.0710     0.0160 c          1 4FG       0.632700
      7 N2          -1.4580    -1.1630    -0.0540 nb         1 4FG      -0.761000
      8 N1          -3.4110    -0.1770    -0.0820 nv         1 4FG      -1.066900
      9 N            2.7700    -1.1150     0.0230 nt         1 4FG      -0.608000
     10 O            2.7820     1.0990     0.0320 o          1 4FG      -0.614100
     11 H1           0.4400     2.2560    -0.0070 ha         1 4FG       0.139000
     12 H2          -2.0680     2.1580    -0.0540 ha         1 4FG       0.125000
     13 H3           0.3860    -2.0930    -0.0220 h4         1 4FG       0.010100
     14 H4          -3.9810     0.5840     0.2710 hn         1 4FG       0.485500
     15 H5          -3.7180    -1.1140     0.1520 hn         1 4FG       0.485500
     16 H6           2.2540    -1.9810     0.0100 hn         1 4FG       0.312500
     17 H7           3.7790    -1.1230     0.0410 hn         1 4FG       0.312500
@<TRIPOS>BOND
     1     1     2 ar  
     2     1     4 ar  
     3     1    11 1   
     4     2     5 ar  
     5     2    12 1   
     6     3     4 ar  
     7     3     7 ar  
     8     3    13 1   
     9     4     6 1   
    10     5     7 ar  
    11     5     8 1   
    12     6     9 1   
    13     6    10 2   
    14     8    14 1   
    15     8    15 1   
    16     9    16 1   
    17     9    17 1   
@<TRIPOS>SUBSTRUCTURE
     1 4FG         1 TEMP              0 ****  ****    0 ROOT
