@<TRIPOS>MOLECULE
4FG
   17    17     1     0     0
SMALL
bcc


@<TRIPOS>ATOM
      1 C2          -0.0770     1.2250     0.0200 ca         1 4FG       0.003000
      2 C3          -1.4470     1.2000     0.0430 ca         1 4FG      -0.333300
      3 C5          -0.0950    -1.1390    -0.1590 ca         1 4FG       0.484200
      4 C1           0.6490     0.0300    -0.0690 ca         1 4FG      -0.338900
      5 C4          -2.1000    -0.0480    -0.0370 ca         1 4FG       0.694200
      6 C            2.1330     0.0810    -0.0970 c          1 4FG       0.699700
      7 N2          -1.4180    -1.1900    -0.1440 nb         1 4FG      -0.761000
      8 N1          -3.4470    -0.1310    -0.0430 nv         1 4FG      -0.956500
      9 N            2.7850    -1.0720     0.1270 nt         1 4FG      -0.675000
     10 O            2.7230     1.1330    -0.3170 o          1 4FG      -0.614100
     11 H1           0.4440     2.1710     0.0820 ha         1 4FG       0.157000
     12 H2          -2.0220     2.1130     0.1240 ha         1 4FG       0.143000
     13 H3           0.3930    -2.1030    -0.2680 h4         1 4FG       0.010100
     14 H4          -3.9940     0.6610     0.2460 hn         1 4FG       0.430300
     15 H5          -3.8670    -1.0340     0.1010 hn         1 4FG       0.430300
     16 H6           2.3260    -1.9140     0.4260 hn         1 4FG       0.312500
     17 H7           3.7920    -1.0830     0.1180 hn         1 4FG       0.312500
@<TRIPOS>BOND
     1     1     2 ar  
     2     1     4 ar  
     3     1    11 1   
     4     2     5 ar  
     5     2    12 1   
     6     3     4 ar  
     7     3     7 ar  
     8     3    13 1   
     9     4     6 1   
    10     5     7 ar  
    11     5     8 1   
    12     6     9 1   
    13     6    10 2   
    14     8    14 1   
    15     8    15 1   
    16     9    16 1   
    17     9    17 1   
@<TRIPOS>SUBSTRUCTURE
     1 4FG         1 TEMP              0 ****  ****    0 ROOT
