@<TRIPOS>MOLECULE
4FH
   16    16     1     0     0
SMALL
abcg2


@<TRIPOS>ATOM
      1 S1           2.8220     1.4680     0.1430 s          1 4FH      -0.576400
      2 C1           1.5300     0.3920     0.0650 cs         1 4FH       0.305600
      3 C2           0.1620     0.7430     0.0710 cc         1 4FH      -0.186200
      4 C3          -0.8170    -0.2080     0.0000 cd         1 4FH      -0.118200
      5 C6          -2.2710     0.1670     0.0060 c3         1 4FH       0.358200
      6 F1          -2.8670    -0.2210    -1.1260 f          1 4FH      -0.103333
      7 F2          -2.9120    -0.4330     1.0140 f          1 4FH      -0.103333
      8 F3          -2.4620     1.4780     0.1320 f          1 4FH      -0.103333
      9 C4          -0.4790    -1.5680    -0.0820 cd         1 4FH      -0.229000
     10 C5           0.8400    -1.9050    -0.0860 cc         1 4FH      -0.033400
     11 N1           1.7800    -0.9480    -0.0140 n          1 4FH      -0.000500
     12 O2           3.0540    -1.3760    -0.0240 oh         1 4FH      -0.441100
     13 H1          -0.0640     1.7970     0.1380 ha         1 4FH       0.242000
     14 H2          -1.2170    -2.3540    -0.1400 ha         1 4FH       0.226000
     15 H3           1.1940    -2.9240    -0.1450 h4         1 4FH       0.239000
     16 H4           3.5840    -0.5410     0.0290 ho         1 4FH       0.522000
@<TRIPOS>BOND
     1     1     2 2   
     2     2     3 1   
     3     2    11 1   
     4     3     4 2   
     5     3    13 1   
     6     4     5 1   
     7     4     9 1   
     8     5     6 1   
     9     5     7 1   
    10     5     8 1   
    11     9    10 2   
    12     9    14 1   
    13    10    11 1   
    14    10    15 1   
    15    11    12 1   
    16    12    16 1   
@<TRIPOS>SUBSTRUCTURE
     1 4FH         1 TEMP              0 ****  ****    0 ROOT
