@<TRIPOS>MOLECULE
4FH
   16    16     1     0     0
SMALL
No Charge or Current Charge


@<TRIPOS>ATOM
      1 S1           2.6590     1.6320     0.6950 s          1 4FH      -0.576400
      2 C1           1.5310     0.4310     0.3570 cs         1 4FH       0.305600
      3 C2           0.1240     0.7270     0.2870 cc         1 4FH      -0.186200
      4 C3          -0.8720    -0.1980     0.0010 cd         1 4FH      -0.118200
      5 C6          -2.3470     0.1780    -0.0520 c3         1 4FH       0.358200
      6 F1          -3.0510    -0.6240    -0.8840 f          1 4FH      -0.103333
      7 F2          -2.9220     0.0840     1.1680 f          1 4FH      -0.103333
      8 F3          -2.5370     1.4460    -0.4830 f          1 4FH      -0.103333
      9 C4          -0.4290    -1.5530    -0.2240 cd         1 4FH      -0.229000
     10 C5           0.9160    -1.8540    -0.1610 cc         1 4FH      -0.033400
     11 N1           1.8820    -0.8930     0.1170 n          1 4FH      -0.000500
     12 O2           3.2520    -1.3040     0.1630 oh         1 4FH      -0.441100
     13 H1          -0.1310     1.7650     0.4790 ha         1 4FH       0.242000
     14 H2          -1.1450    -2.3450    -0.4410 ha         1 4FH       0.226000
     15 H3           1.3490    -2.8390    -0.3080 h4         1 4FH       0.239000
     16 H4           3.5980    -1.0880    -0.7320 ho         1 4FH       0.522000
@<TRIPOS>BOND
     1     1     2 2   
     2     2     3 1   
     3     2    11 1   
     4     3     4 2   
     5     3    13 1   
     6     4     5 1   
     7     4     9 1   
     8     5     6 1   
     9     5     7 1   
    10     5     8 1   
    11     9    10 2   
    12     9    14 1   
    13    10    11 1   
    14    10    15 1   
    15    11    12 1   
    16    12    16 1   
@<TRIPOS>SUBSTRUCTURE
     1 4FH         1 TEMP              0 ****  ****    0 ROOT
