@<TRIPOS>MOLECULE
4FI
   50    53     1     0     0
SMALL
No Charge or Current Charge


@<TRIPOS>ATOM
      1 C1          -2.1800     2.2480     0.6790 ca         1 4FI      -0.113000
      2 C2          -2.7550    -0.0760     1.1610 ca         1 4FI      -0.046300
      3 C3          -3.7820    -0.0140     0.1990 ca         1 4FI      -0.098000
      4 C4          -2.4950    -1.3710     1.9230 c3         1 4FI      -0.040100
      5 C5          -1.6450    -2.3940     1.1250 c3         1 4FI      -0.042300
      6 C6          -1.3580    -3.6700     1.9690 c          1 4FI       0.716000
      7 N7          -0.3780    -1.7910     0.6400 ns         1 4FI      -0.450900
      8 O8          -0.4730    -3.6220     2.8130 o          1 4FI      -0.717000
      9 O9          -1.9650    -4.6950     1.6900 o          1 4FI      -0.717000
     10 C10         -0.1910    -1.2070    -0.5940 c          1 4FI       0.624700
     11 C11         -1.9580     1.0610     1.3980 ca         1 4FI      -0.091000
     12 O12         -1.0400    -1.2470    -1.4730 o          1 4FI      -0.637100
     13 C13          1.1200    -0.5350    -0.7520 cc         1 4FI      -0.190600
     14 N14          1.6360     0.1660    -1.8390 na         1 4FI       0.175800
     15 N15          2.9060     0.6660    -1.6270 nc         1 4FI      -0.538800
     16 C16          3.1890     0.2830    -0.3940 cd         1 4FI       0.282500
     17 C17          2.1280    -0.4540     0.1790 cd         1 4FI      -0.192000
     18 C18          4.4840     0.6150     0.2480 ca         1 4FI      -0.092500
     19 C19          5.5410     1.1820    -0.5030 ca         1 4FI      -0.095000
     20 C20          6.7620     1.5120     0.1110 ca         1 4FI      -0.119500
     21 C21          6.9440     1.2890     1.4840 ca         1 4FI      -0.121000
     22 C22          5.9020     0.7380     2.2440 ca         1 4FI      -0.119500
     23 C23          4.6790     0.4070     1.6330 ca         1 4FI      -0.095000
     24 C24          0.9630     0.4080    -3.1250 c3         1 4FI       0.078900
     25 C25         -3.2050     2.3090    -0.2820 ca         1 4FI      -0.041000
     26 C26         -4.0100     1.1730    -0.5230 ca         1 4FI      -0.024000
     27 C27         -5.0340     1.2330    -1.4870 ca         1 4FI      -0.092000
     28 C28         -5.2560     2.4190    -2.2080 ca         1 4FI      -0.126000
     29 C29         -4.4550     3.5490    -1.9680 ca         1 4FI      -0.128000
     30 C30         -3.4310     3.4950    -1.0070 ca         1 4FI      -0.097000
     31 H1          -1.5550     3.1170     0.8700 ha         1 4FI       0.102000
     32 H3          -4.3950    -0.8910     0.0090 ha         1 4FI       0.115000
     33 H4          -1.9890    -1.1500     2.8710 hc         1 4FI       0.057700
     34 H4A         -3.4480    -1.8410     2.1960 hc         1 4FI       0.057700
     35 H5          -2.2290    -2.7160     0.2530 h1         1 4FI       0.067700
     36 HN7          0.4000    -1.7450     1.2840 hn         1 4FI       0.340500
     37 H11         -1.1580     1.0230     2.1340 ha         1 4FI       0.112000
     38 H17          2.1240    -0.8800     1.1750 ha         1 4FI       0.150000
     39 H19          5.4240     1.3650    -1.5680 ha         1 4FI       0.122500
     40 H20          7.5670     1.9430    -0.4810 ha         1 4FI       0.104500
     41 H21          7.8890     1.5450     1.9580 ha         1 4FI       0.102000
     42 H22          6.0380     0.5700     3.3100 ha         1 4FI       0.104500
     43 H23          3.8870    -0.0080     2.2490 ha         1 4FI       0.122500
     44 H24          0.0260     0.9500    -2.9490 h1         1 4FI       0.061367
     45 H24A         1.6070     1.0040    -3.7820 h1         1 4FI       0.061367
     46 H24B         0.7440    -0.5520    -3.6070 h1         1 4FI       0.061367
     47 H27         -5.6580     0.3630    -1.6790 ha         1 4FI       0.108000
     48 H28         -6.0480     2.4630    -2.9520 ha         1 4FI       0.098000
     49 H29         -4.6280     4.4660    -2.5260 ha         1 4FI       0.097000
     50 H30         -2.8150     4.3730    -0.8270 ha         1 4FI       0.102000
@<TRIPOS>BOND
     1     1    11 ar  
     2     1    25 ar  
     3     1    31 1   
     4     2     3 ar  
     5     2     4 1   
     6     2    11 ar  
     7     3    26 ar  
     8     3    32 1   
     9     4     5 1   
    10     4    33 1   
    11     4    34 1   
    12     5     6 1   
    13     5     7 1   
    14     5    35 1   
    15     6     8 1   
    16     6     9 1   
    17     7    10 1   
    18     7    36 1   
    19    10    12 2   
    20    10    13 1   
    21    11    37 1   
    22    13    14 1   
    23    13    17 2   
    24    14    15 1   
    25    14    24 1   
    26    15    16 2   
    27    16    17 1   
    28    16    18 1   
    29    17    38 1   
    30    18    19 ar  
    31    18    23 ar  
    32    19    20 ar  
    33    19    39 1   
    34    20    21 ar  
    35    20    40 1   
    36    21    22 ar  
    37    21    41 1   
    38    22    23 ar  
    39    22    42 1   
    40    23    43 1   
    41    24    44 1   
    42    24    45 1   
    43    24    46 1   
    44    25    26 ar  
    45    25    30 ar  
    46    26    27 ar  
    47    27    28 ar  
    48    27    47 1   
    49    28    29 ar  
    50    28    48 1   
    51    29    30 ar  
    52    29    49 1   
    53    30    50 1   
@<TRIPOS>SUBSTRUCTURE
     1 4FI         1 TEMP              0 ****  ****    0 ROOT
