@<TRIPOS>MOLECULE
4FI
   50    53     1     0     0
SMALL
bcc


@<TRIPOS>ATOM
      1 C1          -1.9850     2.0660     0.6920 ca         1 4FI      -0.131000
      2 C2          -2.7870    -0.1840     1.1090 ca         1 4FI      -0.046300
      3 C3          -3.8400     0.0370     0.2600 ca         1 4FI      -0.116000
      4 C4          -2.5780    -1.5210     1.7550 c3         1 4FI      -0.040100
      5 C5          -1.7090    -2.4610     0.8940 c3         1 4FI      -0.042300
      6 C6          -1.4660    -3.7790     1.6720 c          1 4FI       0.926600
      7 N7          -0.4520    -1.8450     0.5520 ns         1 4FI      -0.517900
      8 O8          -0.3030    -4.0050     2.0570 o          1 4FI      -0.822300
      9 O9          -2.4770    -4.4760     1.8640 o          1 4FI      -0.822300
     10 C10         -0.2080    -1.1840    -0.5860 c          1 4FI       0.691700
     11 C11         -1.8570     0.8620     1.3250 ca         1 4FI      -0.109000
     12 O12         -1.0100    -1.0540    -1.5010 o          1 4FI      -0.637100
     13 C13          1.1510    -0.5950    -0.6550 cc         1 4FI      -0.139900
     14 N14          1.7370    -0.1980    -1.8080 na         1 4FI       0.154400
     15 N15          2.9350     0.3190    -1.6000 nc         1 4FI      -0.538800
     16 C16          3.1480     0.2710    -0.2910 cd         1 4FI       0.347800
     17 C17          2.0430    -0.3030     0.3560 cd         1 4FI      -0.275300
     18 C18          4.3980     0.7650     0.2930 ca         1 4FI      -0.092500
     19 C19          5.4120     1.2830    -0.5160 ca         1 4FI      -0.113000
     20 C20          6.5940     1.7430     0.0420 ca         1 4FI      -0.137500
     21 C21          6.7870     1.6970     1.4170 ca         1 4FI      -0.139000
     22 C22          5.7850     1.1840     2.2300 ca         1 4FI      -0.137500
     23 C23          4.6010     0.7230     1.6730 ca         1 4FI      -0.113000
     24 C24          1.2350    -0.2700    -3.1650 c3         1 4FI       0.049600
     25 C25         -3.0600     2.3050    -0.1950 ca         1 4FI      -0.041000
     26 C26         -4.0070     1.2700    -0.4080 ca         1 4FI      -0.024000
     27 C27         -5.0910     1.5070    -1.2870 ca         1 4FI      -0.110000
     28 C28         -5.2270     2.7100    -1.9230 ca         1 4FI      -0.144000
     29 C29         -4.2830     3.7390    -1.7120 ca         1 4FI      -0.146000
     30 C30         -3.2260     3.5390    -0.8660 ca         1 4FI      -0.115000
     31 H1          -1.2620     2.8540     0.8700 ha         1 4FI       0.120000
     32 H3          -4.5650    -0.7510     0.0840 ha         1 4FI       0.133000
     33 H4          -2.0970    -1.3900     2.7290 hc         1 4FI       0.057700
     34 H4A         -3.5350    -2.0130     1.9330 hc         1 4FI       0.057700
     35 H5          -2.2500    -2.6860    -0.0270 h1         1 4FI       0.067700
     36 HN7          0.3090    -2.0630     1.1790 hn         1 4FI       0.340500
     37 H11         -1.0330     0.7010     2.0090 ha         1 4FI       0.130000
     38 H17          1.9030    -0.4660     1.4120 ha         1 4FI       0.168000
     39 H19          5.2740     1.3240    -1.5890 ha         1 4FI       0.140500
     40 H20          7.3700     2.1400    -0.6010 ha         1 4FI       0.122500
     41 H21          7.7110     2.0570     1.8500 ha         1 4FI       0.120000
     42 H22          5.9230     1.1420     3.3020 ha         1 4FI       0.122500
     43 H23          3.8330     0.3260     2.3240 ha         1 4FI       0.140500
     44 H24          0.4220     0.4350    -3.3180 h1         1 4FI       0.061367
     45 H24A         2.0590    -0.0200    -3.8250 h1         1 4FI       0.061367
     46 H24B         0.8840    -1.2720    -3.3940 h1         1 4FI       0.061367
     47 H27         -5.8170     0.7180    -1.4510 ha         1 4FI       0.126000
     48 H28         -6.0600     2.8790    -2.5930 ha         1 4FI       0.116000
     49 H29         -4.4010     4.6870    -2.2210 ha         1 4FI       0.115000
     50 H30         -2.5010     4.3280    -0.7000 ha         1 4FI       0.120000
@<TRIPOS>BOND
     1     1    11 ar  
     2     1    25 ar  
     3     1    31 1   
     4     2     3 ar  
     5     2     4 1   
     6     2    11 ar  
     7     3    26 ar  
     8     3    32 1   
     9     4     5 1   
    10     4    33 1   
    11     4    34 1   
    12     5     6 1   
    13     5     7 1   
    14     5    35 1   
    15     6     8 1   
    16     6     9 1   
    17     7    10 1   
    18     7    36 1   
    19    10    12 2   
    20    10    13 1   
    21    11    37 1   
    22    13    14 1   
    23    13    17 2   
    24    14    15 1   
    25    14    24 1   
    26    15    16 2   
    27    16    17 1   
    28    16    18 1   
    29    17    38 1   
    30    18    19 ar  
    31    18    23 ar  
    32    19    20 ar  
    33    19    39 1   
    34    20    21 ar  
    35    20    40 1   
    36    21    22 ar  
    37    21    41 1   
    38    22    23 ar  
    39    22    42 1   
    40    23    43 1   
    41    24    44 1   
    42    24    45 1   
    43    24    46 1   
    44    25    26 ar  
    45    25    30 ar  
    46    26    27 ar  
    47    27    28 ar  
    48    27    47 1   
    49    28    29 ar  
    50    28    48 1   
    51    29    30 ar  
    52    29    49 1   
    53    30    50 1   
@<TRIPOS>SUBSTRUCTURE
     1 4FI         1 TEMP              0 ****  ****    0 ROOT
