@<TRIPOS>MOLECULE
4FJ
   68    74     1     0     0
SMALL
No Charge or Current Charge


@<TRIPOS>ATOM
      1 C11          1.1030    -0.1380     2.0850 c3         1 4FJ      -0.038800
      2 C13          5.8910    -2.2260     2.1060 ca         1 4FJ      -0.080000
      3 C14          5.1940    -3.2060     2.8270 ca         1 4FJ      -0.154000
      4 C16         -0.4420     2.7820     0.4080 c5         1 4FJ       0.217800
      5 C17         -1.9900     2.8740     0.8160 c5         1 4FJ      -0.090300
      6 C19         -1.4290     0.6190     0.1820 ca         1 4FJ       0.289000
      7 C21         -2.8920    -1.2800     0.2430 ca         1 4FJ       0.288000
      8 C22         -1.6190    -0.7480    -0.0420 ca         1 4FJ      -0.177000
      9 C23         -2.2020     3.3770     2.2800 c6         1 4FJ      -0.101400
     10 C24         -1.8490     4.8790     2.4150 c6         1 4FJ       0.152600
     11 C25         -2.4380     5.3040     0.1070 c6         1 4FJ       0.152600
     12 C27         -2.1870    -3.6950     0.5920 c6         1 4FJ       0.157800
     13 C28         -2.3230    -5.0720    -0.1220 c6         1 4FJ       0.147100
     14 C30         -4.5350    -3.1810    -0.1380 c6         1 4FJ       0.157800
     15 O1          -2.6460     5.6520     1.4920 os         1 4FJ      -0.445000
     16 C26         -2.8080     3.8170    -0.1230 c6         1 4FJ      -0.101400
     17 C18         -2.4550     1.4220     0.6590 ca         1 4FJ       0.249300
     18 N4          -3.6980     0.9510     0.9360 nb         1 4FJ      -0.601000
     19 C20         -3.8960    -0.3800     0.7250 ca         1 4FJ       0.227900
     20 N5          -3.1350    -2.6700     0.0380 nh         1 4FJ      -0.778400
     21 O2          -3.7020    -5.5100    -0.1340 os         1 4FJ      -0.444000
     22 C29         -4.5720    -4.5810    -0.8210 c6         1 4FJ       0.147100
     23 N2          -0.2730     1.3610    -0.0060 nh         1 4FJ      -0.844200
     24 C7           0.9890     0.7910    -0.3020 ca         1 4FJ       0.315000
     25 C8           1.6810     0.0260     0.6690 ca         1 4FJ      -0.110300
     26 C1           1.5680     0.9770    -1.5780 ca         1 4FJ      -0.088000
     27 C6           0.9120     1.7130    -2.5950 ca         1 4FJ      -0.055000
     28 C5           1.5210     1.8900    -3.8470 ca         1 4FJ      -0.149000
     29 C4           2.7820     1.3330    -4.0890 ca         1 4FJ       0.181000
     30 F1           3.3710     1.5020    -5.2930 f          1 4FJ      -0.174000
     31 C3           3.4320     0.5970    -3.0920 ca         1 4FJ      -0.134000
     32 C2           2.8340     0.4070    -1.8350 ca         1 4FJ       0.295000
     33 N1           3.4860    -0.3210    -0.9120 nb         1 4FJ      -0.667000
     34 C9           2.9310    -0.5550     0.3040 cp         1 4FJ       0.333000
     35 C10          3.7360    -1.4670     1.2190 cp         1 4FJ       0.284000
     36 C12          5.1510    -1.3550     1.2900 ca         1 4FJ      -0.117000
     37 C15          3.7980    -3.2810     2.7030 ca         1 4FJ       0.333900
     38 N3           3.0860    -2.4400     1.9180 nb         1 4FJ      -0.666000
     39 H1           0.5020    -1.0520     2.1600 hc         1 4FJ       0.052033
     40 H2           1.8950    -0.1890     2.8410 hc         1 4FJ       0.052033
     41 H3           0.4670     0.7030     2.3820 hc         1 4FJ       0.052033
     42 H4           6.9740    -2.1440     2.1730 ha         1 4FJ       0.123000
     43 H5           5.7220    -3.9050     3.4710 ha         1 4FJ       0.126000
     44 H6          -0.1970     3.4720    -0.4110 h1         1 4FJ       0.051200
     45 H7           0.2100     3.0200     1.2600 h1         1 4FJ       0.051200
     46 H8          -0.8180    -1.3650    -0.4300 ha         1 4FJ       0.135000
     47 H9          -3.2470     3.2280     2.5840 hc         1 4FJ       0.063450
     48 H10         -1.5900     2.7860     2.9750 hc         1 4FJ       0.063450
     49 H11         -2.0570     5.2220     3.4390 h1         1 4FJ       0.042200
     50 H12         -0.7830     5.0480     2.2080 h1         1 4FJ       0.042200
     51 H13         -3.0690     5.9480    -0.5210 h1         1 4FJ       0.042200
     52 H14         -1.3880     5.4900    -0.1620 h1         1 4FJ       0.042200
     53 H16         -1.1440    -3.3630     0.4950 h1         1 4FJ       0.050450
     54 H17         -1.9610    -4.9930    -1.1570 h1         1 4FJ       0.054700
     55 H18         -1.7110    -5.8230     0.3960 h1         1 4FJ       0.054700
     56 H19         -5.0350    -3.2520     0.8390 h1         1 4FJ       0.050450
     57 H20         -5.1200    -2.4840    -0.7560 h1         1 4FJ       0.050450
     58 H21         -2.6340     3.5480    -1.1740 hc         1 4FJ       0.063450
     59 H22         -3.8850     3.6860     0.0550 hc         1 4FJ       0.063450
     60 H23         -4.8960    -0.7410     0.9610 h4         1 4FJ       0.021100
     61 H24         -5.5980    -4.9730    -0.8130 h1         1 4FJ       0.054700
     62 H25         -4.2500    -4.4930    -1.8690 h1         1 4FJ       0.054700
     63 H26         -0.0710     2.1470    -2.4270 ha         1 4FJ       0.133000
     64 H27          1.0180     2.4550    -4.6270 ha         1 4FJ       0.135000
     65 H28          4.4060     0.1640    -3.2960 ha         1 4FJ       0.149000
     66 H29          5.6620    -0.5880     0.7140 ha         1 4FJ       0.139000
     67 H30          3.2310    -4.0360     3.2470 h4         1 4FJ       0.020100
     68 H15         -2.3800    -3.8350     1.6660 h1         1 4FJ       0.050450
@<TRIPOS>BOND
     1     1    25 1   
     2     1    39 1   
     3     1    40 1   
     4     1    41 1   
     5     2     3 ar  
     6     2    36 ar  
     7     2    42 1   
     8     3    37 ar  
     9     3    43 1   
    10     4     5 1   
    11     4    23 1   
    12     4    44 1   
    13     4    45 1   
    14     5     9 1   
    15     5    16 1   
    16     5    17 1   
    17     6     8 ar  
    18     6    17 ar  
    19     6    23 1   
    20     7     8 ar  
    21     7    19 ar  
    22     7    20 1   
    23     8    46 1   
    24     9    10 1   
    25     9    47 1   
    26     9    48 1   
    27    10    15 1   
    28    10    49 1   
    29    10    50 1   
    30    11    15 1   
    31    11    16 1   
    32    11    51 1   
    33    11    52 1   
    34    12    13 1   
    35    12    20 1   
    36    12    53 1   
    37    12    68 1   
    38    13    21 1   
    39    13    54 1   
    40    13    55 1   
    41    14    20 1   
    42    14    22 1   
    43    14    56 1   
    44    14    57 1   
    45    16    58 1   
    46    16    59 1   
    47    17    18 ar  
    48    18    19 ar  
    49    19    60 1   
    50    21    22 1   
    51    22    61 1   
    52    22    62 1   
    53    23    24 1   
    54    24    25 ar  
    55    24    26 ar  
    56    25    34 ar  
    57    26    27 ar  
    58    26    32 ar  
    59    27    28 ar  
    60    27    63 1   
    61    28    29 ar  
    62    28    64 1   
    63    29    30 1   
    64    29    31 ar  
    65    31    32 ar  
    66    31    65 1   
    67    32    33 ar  
    68    33    34 ar  
    69    34    35 1   
    70    35    36 ar  
    71    35    38 ar  
    72    36    66 1   
    73    37    38 ar  
    74    37    67 1   
@<TRIPOS>SUBSTRUCTURE
     1 4FJ         1 TEMP              0 ****  ****    0 ROOT
