@<TRIPOS>MOLECULE
4FJ
   68    74     1     0     0
SMALL
abcg2


@<TRIPOS>ATOM
      1 C11          0.9670    -0.3650     1.8800 c3         1 4FJ      -0.038800
      2 C13          5.5970    -2.3680     2.0850 ca         1 4FJ      -0.080000
      3 C14          4.8480    -3.4360     2.5540 ca         1 4FJ      -0.154000
      4 C16         -0.4690     2.6480     0.4240 c5         1 4FJ       0.217800
      5 C17         -1.9850     2.7610     0.7280 c5         1 4FJ      -0.090300
      6 C19         -1.3930     0.5280     0.1360 ca         1 4FJ       0.289000
      7 C21         -2.8500    -1.3510     0.2920 ca         1 4FJ       0.288000
      8 C22         -1.6010    -0.8180    -0.0730 ca         1 4FJ      -0.177000
      9 C23         -2.2650     3.3920     2.0940 c6         1 4FJ      -0.101400
     10 C24         -1.9820     4.8850     2.0840 c6         1 4FJ       0.152600
     11 C25         -2.4200     5.0750    -0.2010 c6         1 4FJ       0.152600
     12 C27         -2.0630    -3.6510     0.4270 c6         1 4FJ       0.157800
     13 C28         -2.3890    -5.0230    -0.1290 c6         1 4FJ       0.147100
     14 C30         -4.4300    -3.1920     0.4770 c6         1 4FJ       0.157800
     15 O1          -2.7280     5.5510     1.0890 os         1 4FJ      -0.445000
     16 C26         -2.7120     3.5890    -0.3470 c6         1 4FJ      -0.101400
     17 C18         -2.4170     1.3190     0.6590 ca         1 4FJ       0.249300
     18 N4          -3.5870     0.8380     0.9880 nb         1 4FJ      -0.601000
     19 C20         -3.8020    -0.4710     0.8270 ca         1 4FJ       0.227900
     20 N5          -3.1190    -2.7010     0.0950 nh         1 4FJ      -0.778400
     21 O2          -3.6440    -5.4820     0.3150 os         1 4FJ      -0.444000
     22 C29         -4.6550    -4.5860    -0.0790 c6         1 4FJ       0.147100
     23 N2          -0.2910     1.3030    -0.1410 nh         1 4FJ      -0.844200
     24 C7           0.9950     0.7880    -0.3510 ca         1 4FJ       0.315000
     25 C8           1.6030    -0.0510     0.5590 ca         1 4FJ      -0.110300
     26 C1           1.6830     1.1880    -1.5270 ca         1 4FJ      -0.088000
     27 C6           1.1110     2.0180    -2.5160 ca         1 4FJ      -0.055000
     28 C5           1.8370     2.4060    -3.6070 ca         1 4FJ      -0.149000
     29 C4           3.1620     1.9610    -3.7350 ca         1 4FJ       0.181000
     30 F1           3.8540     2.3640    -4.8100 f          1 4FJ      -0.174000
     31 C3           3.7520     1.1370    -2.8260 ca         1 4FJ      -0.134000
     32 C2           3.0060     0.7250    -1.7000 ca         1 4FJ       0.295000
     33 N1           3.5770    -0.1320    -0.8310 nb         1 4FJ      -0.667000
     34 C9           2.9050    -0.5270     0.2190 cp         1 4FJ       0.333000
     35 C10          3.6080    -1.5250     1.0670 cp         1 4FJ       0.284000
     36 C12          4.9710    -1.3970     1.3200 ca         1 4FJ      -0.117000
     37 C15          3.4970    -3.4780     2.2390 ca         1 4FJ       0.333900
     38 N3           2.8870    -2.5460     1.5200 nb         1 4FJ      -0.666000
     39 H1           0.4000    -1.2960     1.8540 hc         1 4FJ       0.052033
     40 H2           1.7200    -0.4680     2.6590 hc         1 4FJ       0.052033
     41 H3           0.2850     0.4270     2.1840 hc         1 4FJ       0.052033
     42 H4           6.6520    -2.2910     2.3110 ha         1 4FJ       0.123000
     43 H5           5.2940    -4.2200     3.1500 ha         1 4FJ       0.126000
     44 H6          -0.1210     3.4060    -0.2800 h1         1 4FJ       0.051200
     45 H7           0.1310     2.7520     1.3350 h1         1 4FJ       0.051200
     46 H8          -0.8260    -1.4320    -0.5140 ha         1 4FJ       0.135000
     47 H9          -3.3130     3.2200     2.3530 hc         1 4FJ       0.063450
     48 H10         -1.6630     2.9120     2.8700 hc         1 4FJ       0.063450
     49 H11         -2.2530     5.3310     3.0420 h1         1 4FJ       0.042200
     50 H12         -0.9050     5.0640     1.9390 h1         1 4FJ       0.042200
     51 H13         -3.0240     5.6470    -0.9070 h1         1 4FJ       0.042200
     52 H14         -1.3660     5.2810    -0.4400 h1         1 4FJ       0.042200
     53 H16         -1.1150    -3.3380    -0.0050 h1         1 4FJ       0.050450
     54 H17         -2.3600    -4.9870    -1.2280 h1         1 4FJ       0.054700
     55 H18         -1.6370    -5.7380     0.2040 h1         1 4FJ       0.054700
     56 H19         -4.5590    -3.1990     1.5700 h1         1 4FJ       0.050450
     57 H20         -5.2030    -2.5460     0.0600 h1         1 4FJ       0.050450
     58 H21         -2.4160     3.2580    -1.3470 hc         1 4FJ       0.063450
     59 H22         -3.7880     3.4170    -0.2580 hc         1 4FJ       0.063450
     60 H23         -4.7730    -0.8230     1.1450 h4         1 4FJ       0.021100
     61 H24         -5.6040    -4.9740     0.2910 h1         1 4FJ       0.054700
     62 H25         -4.7160    -4.5330    -1.1760 h1         1 4FJ       0.054700
     63 H26          0.0830     2.3400    -2.4170 ha         1 4FJ       0.133000
     64 H27          1.4030     3.0390    -4.3690 ha         1 4FJ       0.135000
     65 H28          4.7680     0.7870    -2.9540 ha         1 4FJ       0.149000
     66 H29          5.5220    -0.5530     0.9290 ha         1 4FJ       0.139000
     67 H30          2.8800    -4.3000     2.5840 h4         1 4FJ       0.020100
     68 H15         -1.9230    -3.7120     1.5160 h1         1 4FJ       0.050450
@<TRIPOS>BOND
     1     1    25 1   
     2     1    39 1   
     3     1    40 1   
     4     1    41 1   
     5     2     3 ar  
     6     2    36 ar  
     7     2    42 1   
     8     3    37 ar  
     9     3    43 1   
    10     4     5 1   
    11     4    23 1   
    12     4    44 1   
    13     4    45 1   
    14     5     9 1   
    15     5    16 1   
    16     5    17 1   
    17     6     8 ar  
    18     6    17 ar  
    19     6    23 1   
    20     7     8 ar  
    21     7    19 ar  
    22     7    20 1   
    23     8    46 1   
    24     9    10 1   
    25     9    47 1   
    26     9    48 1   
    27    10    15 1   
    28    10    49 1   
    29    10    50 1   
    30    11    15 1   
    31    11    16 1   
    32    11    51 1   
    33    11    52 1   
    34    12    13 1   
    35    12    20 1   
    36    12    53 1   
    37    12    68 1   
    38    13    21 1   
    39    13    54 1   
    40    13    55 1   
    41    14    20 1   
    42    14    22 1   
    43    14    56 1   
    44    14    57 1   
    45    16    58 1   
    46    16    59 1   
    47    17    18 ar  
    48    18    19 ar  
    49    19    60 1   
    50    21    22 1   
    51    22    61 1   
    52    22    62 1   
    53    23    24 1   
    54    24    25 ar  
    55    24    26 ar  
    56    25    34 ar  
    57    26    27 ar  
    58    26    32 ar  
    59    27    28 ar  
    60    27    63 1   
    61    28    29 ar  
    62    28    64 1   
    63    29    30 1   
    64    29    31 ar  
    65    31    32 ar  
    66    31    65 1   
    67    32    33 ar  
    68    33    34 ar  
    69    34    35 1   
    70    35    36 ar  
    71    35    38 ar  
    72    36    66 1   
    73    37    38 ar  
    74    37    67 1   
@<TRIPOS>SUBSTRUCTURE
     1 4FJ         1 TEMP              0 ****  ****    0 ROOT
