@<TRIPOS>MOLECULE
4FK
   37    39     1     0     0
SMALL
abcg2


@<TRIPOS>ATOM
      1 N1          21.6000    38.3540    11.8220 ns         1 4FK      -0.150000
      2 C4          22.2440    39.6680     8.4060 ca         1 4FK      -0.056500
      3 C5          22.3040    39.5670     9.7850 ca         1 4FK      -0.160500
      4 C6          21.6090    38.5470    10.4410 ca         1 4FK      -0.010000
      5 C7          22.1900    39.0890    12.8050 c          1 4FK       0.609100
      6 C8          21.9560    38.5340    14.1880 c3         1 4FK      -0.184100
      7 C10         22.0340    39.8530     5.4100 cc         1 4FK      -0.282000
      8 C13         19.6770    38.9080     1.3670 ca         1 4FK      -0.112500
      9 C15         19.9470    38.0420    -0.8380 ca         1 4FK       0.158000
     10 C17         20.3290    36.6170     1.0320 ca         1 4FK      -0.112500
     11 C1          20.8690    37.6470     9.6690 ca         1 4FK      -0.160500
     12 C11         20.7000    38.2370     4.1930 cc         1 4FK       0.711300
     13 C12         20.0360    37.6700     1.8970 ca         1 4FK       0.276000
     14 C14         19.6490    39.1030    -0.0050 ca         1 4FK      -0.128000
     15 C16         20.2740    36.7960    -0.3410 ca         1 4FK      -0.128000
     16 C2          20.8180    37.7610     8.2930 ca         1 4FK      -0.056500
     17 C3          21.5020    38.7800     7.6280 ca         1 4FK      -0.152500
     18 C9          21.4290    38.9000     6.1680 cd         1 4FK       0.398500
     19 N2          20.6740    37.9950     5.4640 nd         1 4FK      -0.731000
     20 O1          22.8470    40.0920    12.5990 o          1 4FK      -0.575100
     21 S1          21.6650    39.6170     3.7410 ss         1 4FK      -0.080400
     22 H1          21.0720    37.5510    12.1310 hn         1 4FK       0.148000
     23 H2          19.8080    36.5400     3.6190 hn         1 4FK       0.511000
     24 H3          22.7980    40.4720     7.9380 ha         1 4FK       0.123000
     25 H4          22.8900    40.2830    10.3370 ha         1 4FK       0.128000
     26 H5          22.3820    39.1980    14.9350 hc         1 4FK       0.064033
     27 H6          20.8910    38.4130    14.3890 hc         1 4FK       0.064033
     28 H7          22.4200    37.5510    14.2900 hc         1 4FK       0.064033
     29 H8          22.6500    40.6830     5.7150 h4         1 4FK       0.162000
     30 H9          19.3930    39.7240     2.0180 ha         1 4FK       0.128500
     31 H10         20.6040    35.6510     1.4350 ha         1 4FK       0.128500
     32 H11         20.3230    36.8460    10.1530 ha         1 4FK       0.128000
     33 H12         19.3730    40.0650    -0.4160 ha         1 4FK       0.136500
     34 H13         20.4980    35.9760    -1.0110 ha         1 4FK       0.136500
     35 H14         20.2350    37.0470     7.7290 ha         1 4FK       0.123000
     36 N3          20.0710    37.4550     3.2810 nu         1 4FK      -0.943900
     37 F1          19.9070    38.2260    -2.1670 f          1 4FK      -0.175000
@<TRIPOS>BOND
     1     1     4 1   
     2     1     5 1   
     3     1    22 1   
     4     2     3 ar  
     5     2    17 ar  
     6     2    24 1   
     7     3     4 ar  
     8     3    25 1   
     9     4    11 ar  
    10     5     6 1   
    11     5    20 2   
    12     6    26 1   
    13     6    27 1   
    14     6    28 1   
    15     7    18 2   
    16     7    21 1   
    17     7    29 1   
    18     8    13 ar  
    19     8    14 ar  
    20     8    30 1   
    21     9    14 ar  
    22     9    15 ar  
    23     9    37 1   
    24    10    13 ar  
    25    10    15 ar  
    26    10    31 1   
    27    11    16 ar  
    28    11    32 1   
    29    12    19 2   
    30    12    21 1   
    31    12    36 1   
    32    13    36 1   
    33    14    33 1   
    34    15    34 1   
    35    16    17 ar  
    36    16    35 1   
    37    17    18 1   
    38    18    19 1   
    39    23    36 1   
@<TRIPOS>SUBSTRUCTURE
     1 4FK         1 TEMP              0 ****  ****    0 ROOT
