@<TRIPOS>MOLECULE
4FK
   37    39     1     0     0
SMALL
No Charge or Current Charge


@<TRIPOS>ATOM
      1 N1          21.6600    38.2780    11.8560 ns         1 4FK      -0.150000
      2 C4          22.1620    39.8320     8.4550 ca         1 4FK      -0.056500
      3 C5          22.2460    39.6410     9.8460 ca         1 4FK      -0.160500
      4 C6          21.6190    38.5370    10.4580 ca         1 4FK      -0.010000
      5 C7          22.2540    38.9480    12.9170 c          1 4FK       0.609100
      6 C8          22.0280    38.2860    14.2730 c3         1 4FK      -0.184100
      7 C10         21.9370    40.1720     5.4790 cc         1 4FK      -0.282000
      8 C13         19.8610    38.9660     1.1120 ca         1 4FK      -0.112500
      9 C15         19.9330    37.6950    -0.9610 ca         1 4FK       0.158000
     10 C17         20.1630    36.5550     1.1760 ca         1 4FK      -0.112500
     11 C1          20.9090    37.6330     9.6490 ca         1 4FK      -0.160500
     12 C11         20.7100    38.6130     4.1350 cc         1 4FK       0.711300
     13 C12         20.0500    37.7830     1.8530 ca         1 4FK       0.276000
     14 C14         19.8050    38.9230    -0.2950 ca         1 4FK      -0.128000
     15 C16         20.1090    36.5100    -0.2310 ca         1 4FK      -0.128000
     16 C2          20.8230    37.8220     8.2590 ca         1 4FK      -0.056500
     17 C3          21.4490    38.9260     7.6390 ca         1 4FK      -0.152500
     18 C9          21.3600    39.1260     6.1720 cd         1 4FK       0.398500
     19 N2          20.6590    38.2240     5.3800 nd         1 4FK      -0.731000
     20 O1          22.9090    39.9790    12.8140 o          1 4FK      -0.575100
     21 S1          21.6190    40.0540     3.7730 ss         1 4FK      -0.080400
     22 H1          21.1580    37.4430    12.1290 hn         1 4FK       0.148000
     23 H2          19.8660    36.9290     3.7090 hn         1 4FK       0.511000
     24 H3          22.6600    40.6970     8.0240 ha         1 4FK       0.123000
     25 H4          22.8060    40.3660    10.4270 ha         1 4FK       0.128000
     26 H5          22.5050    38.8320    15.0950 hc         1 4FK       0.064033
     27 H6          20.9510    38.1680    14.4370 hc         1 4FK       0.064033
     28 H7          22.3700    37.2460    14.2250 hc         1 4FK       0.064033
     29 H8          22.5270    40.9960     5.8520 h4         1 4FK       0.162000
     30 H9          19.7400    39.9180     1.6210 ha         1 4FK       0.128500
     31 H10         20.3010    35.6350     1.7380 ha         1 4FK       0.128500
     32 H11         20.4160    36.7730    10.0980 ha         1 4FK       0.128000
     33 H12         19.6590    39.8370    -0.8650 ha         1 4FK       0.136500
     34 H13         20.2030    35.5600    -0.7530 ha         1 4FK       0.136500
     35 H14         20.2640    37.0990     7.6690 ha         1 4FK       0.123000
     36 N3          20.0990    37.8010     3.2440 nu         1 4FK      -0.943900
     37 F1          19.8790    37.6530    -2.3100 f          1 4FK      -0.175000
@<TRIPOS>BOND
     1     1     4 1   
     2     1     5 1   
     3     1    22 1   
     4     2     3 ar  
     5     2    17 ar  
     6     2    24 1   
     7     3     4 ar  
     8     3    25 1   
     9     4    11 ar  
    10     5     6 1   
    11     5    20 2   
    12     6    26 1   
    13     6    27 1   
    14     6    28 1   
    15     7    18 2   
    16     7    21 1   
    17     7    29 1   
    18     8    13 ar  
    19     8    14 ar  
    20     8    30 1   
    21     9    14 ar  
    22     9    15 ar  
    23     9    37 1   
    24    10    13 ar  
    25    10    15 ar  
    26    10    31 1   
    27    11    16 ar  
    28    11    32 1   
    29    12    19 2   
    30    12    21 1   
    31    12    36 1   
    32    13    36 1   
    33    14    33 1   
    34    15    34 1   
    35    16    17 ar  
    36    16    35 1   
    37    17    18 1   
    38    18    19 1   
    39    23    36 1   
@<TRIPOS>SUBSTRUCTURE
     1 4FK         1 TEMP              0 ****  ****    0 ROOT
