@<TRIPOS>MOLECULE
4FL
   18    19     1     0     0
SMALL
bcc


@<TRIPOS>ATOM
      1 C4           1.1400     1.2010     0.0310 ca         1 4FL      -0.231300
      2 C7           1.1350    -1.1800     0.0030 ca         1 4FL      -0.231300
      3 C5           2.5220     1.1420     0.0380 ca         1 4FL       0.399700
      4 C6           2.5190    -1.1250     0.0120 ca         1 4FL       0.399700
      5 C1          -3.1340    -0.6120    -0.0230 cc         1 4FL      -0.257600
      6 C           -3.0620     0.7550     0.0080 cd         1 4FL       0.302200
      7 C3           0.4120     0.0120     0.0130 ca         1 4FL      -0.075500
      8 C2          -1.0440     0.0540     0.0050 cc         1 4FL       0.439000
      9 N2           3.2140     0.0060     0.0290 nb         1 4FL      -0.660000
     10 N           -1.8430    -1.0380    -0.0240 na         1 4FL      -0.283900
     11 N1          -1.7640     1.1540     0.0250 nd         1 4FL      -0.660000
     12 H1           0.6360     2.1570     0.0390 ha         1 4FL       0.147500
     13 H2           0.6540    -2.1490    -0.0110 ha         1 4FL       0.147500
     14 H3           3.0990     2.0600     0.0520 h4         1 4FL       0.021100
     15 H4           3.0910    -2.0460     0.0050 h4         1 4FL       0.021100
     16 H6          -3.8770     1.4600     0.0180 h4         1 4FL       0.041100
     17 H7          -1.5580    -2.0050    -0.0450 hn         1 4FL       0.303700
     18 H5          -3.9650    -1.2960    -0.0450 h4         1 4FL       0.178000
@<TRIPOS>BOND
     1     1     3 ar  
     2     1     7 ar  
     3     1    12 1   
     4     2     4 ar  
     5     2     7 ar  
     6     2    13 1   
     7     3     9 ar  
     8     3    14 1   
     9     4     9 ar  
    10     4    15 1   
    11     5     6 2   
    12     5    10 1   
    13     5    18 1   
    14     6    11 1   
    15     6    16 1   
    16     7     8 1   
    17     8    10 1   
    18     8    11 2   
    19    10    17 1   
@<TRIPOS>SUBSTRUCTURE
     1 4FL         1 TEMP              0 ****  ****    0 ROOT
