@<TRIPOS>MOLECULE
4FL
   18    19     1     0     0
SMALL
No Charge or Current Charge


@<TRIPOS>ATOM
      1 C4           1.1700     1.2250     0.0350 ca         1 4FL      -0.148000
      2 C7           1.1370    -1.1790    -0.0020 ca         1 4FL      -0.148000
      3 C5           2.5730     1.1620     0.0430 ca         1 4FL       0.334400
      4 C6           2.5430    -1.1510     0.0080 ca         1 4FL       0.334400
      5 C1          -3.1780    -0.6310    -0.0200 cc         1 4FL      -0.225000
      6 C           -3.1170     0.7380     0.0010 cd         1 4FL       0.236900
      7 C3           0.4120     0.0330     0.0120 ca         1 4FL      -0.075500
      8 C2          -1.0610     0.0650     0.0030 cc         1 4FL       0.439000
      9 N2           3.2590    -0.0040     0.0290 nb         1 4FL      -0.660000
     10 N           -1.8630    -1.0510    -0.0180 na         1 4FL      -0.283500
     11 N1          -1.8040     1.1620     0.0150 nd         1 4FL      -0.660000
     12 H1           0.6840     2.1970     0.0460 ha         1 4FL       0.129500
     13 H2           0.6360    -2.1420    -0.0190 ha         1 4FL       0.129500
     14 H3           3.1680     2.0740     0.0600 h4         1 4FL       0.021100
     15 H4           3.1150    -2.0780    -0.0030 h4         1 4FL       0.021100
     16 H6          -3.9430     1.4400     0.0060 h4         1 4FL       0.041100
     17 H7          -1.5300    -2.0070    -0.0310 hn         1 4FL       0.354000
     18 H5          -4.0280    -1.3040    -0.0360 h4         1 4FL       0.160000
@<TRIPOS>BOND
     1     1     3 ar  
     2     1     7 ar  
     3     1    12 1   
     4     2     4 ar  
     5     2     7 ar  
     6     2    13 1   
     7     3     9 ar  
     8     3    14 1   
     9     4     9 ar  
    10     4    15 1   
    11     5     6 2   
    12     5    10 1   
    13     5    18 1   
    14     6    11 1   
    15     6    16 1   
    16     7     8 1   
    17     8    10 1   
    18     8    11 2   
    19    10    17 1   
@<TRIPOS>SUBSTRUCTURE
     1 4FL         1 TEMP              0 ****  ****    0 ROOT
