@<TRIPOS>MOLECULE
4FM
   26    27     1     0     0
SMALL
No Charge or Current Charge


@<TRIPOS>ATOM
      1 C5          -1.6350    -1.0620    -0.9830 ca         1 4FM      -0.085500
      2 C9          -2.3650    -0.3270     1.2210 ca         1 4FM      -0.085500
      3 C6          -2.7320    -0.4020    -1.5660 ca         1 4FM      -0.105500
      4 C8          -3.4610     0.3320     0.6360 ca         1 4FM      -0.105500
      5 C4          -1.4480    -1.0290     0.4130 ca         1 4FM      -0.120300
      6 C7          -3.6430     0.2940    -0.7560 ca         1 4FM       0.128000
      7 C1           2.9700     0.1900     0.4340 cc         1 4FM       0.136500
      8 C            4.0900     0.3960    -0.3950 cc         1 4FM       0.516900
      9 C2           1.9170    -0.8230     0.1460 c          1 4FM       0.539600
     10 C3          -0.2580    -1.7390     1.0420 c3         1 4FM       0.149300
     11 N2           2.9940     1.0170     1.4630 nd         1 4FM      -0.306300
     12 N1           4.8740     1.3400     0.0310 nd         1 4FM      -0.439300
     13 N            4.3990    -0.2780    -1.5340 nv         1 4FM      -1.036900
     14 N3           0.9140    -0.8630     1.0960 ns         1 4FM      -0.479900
     15 O1           1.9020    -1.5660    -0.8300 o          1 4FM      -0.611100
     16 O            4.2010     1.7620     1.2280 os         1 4FM       0.121600
     17 Cl          -5.0140     1.1200    -1.4860 cl         1 4FM      -0.199000
     18 H5          -0.9300    -1.5970    -1.6170 ha         1 4FM       0.123500
     19 H8          -2.2300    -0.2910     2.3000 ha         1 4FM       0.123500
     20 H6          -2.8740    -0.4290    -2.6430 ha         1 4FM       0.132000
     21 H7          -4.1680     0.8730     1.2600 ha         1 4FM       0.132000
     22 H4          -0.5110    -2.0510     2.0640 h1         1 4FM       0.069200
     23 H3          -0.0190    -2.6470     0.4720 h1         1 4FM       0.069200
     24 H1           3.6780    -0.8800    -1.9290 hn         1 4FM       0.498500
     25 H            5.0580     0.1500    -2.1780 hn         1 4FM       0.498500
     26 H2           0.9960    -0.2110     1.8690 hn         1 4FM       0.337500
@<TRIPOS>BOND
     1     1     3 ar  
     2     1     5 ar  
     3     1    18 1   
     4     2     4 ar  
     5     2     5 ar  
     6     2    19 1   
     7     3     6 ar  
     8     3    20 1   
     9     4     6 ar  
    10     4    21 1   
    11     5    10 1   
    12     6    17 1   
    13     7     8 1   
    14     7     9 1   
    15     7    11 2   
    16     8    12 2   
    17     8    13 1   
    18     9    14 1   
    19     9    15 2   
    20    10    14 1   
    21    10    22 1   
    22    10    23 1   
    23    11    16 1   
    24    12    16 1   
    25    13    24 1   
    26    13    25 1   
    27    14    26 1   
@<TRIPOS>SUBSTRUCTURE
     1 4FM         1 TEMP              0 ****  ****    0 ROOT
