@<TRIPOS>MOLECULE
4FM
   26    27     1     0     0
SMALL
bcc


@<TRIPOS>ATOM
      1 C5          -1.5380    -0.8050    -0.9290 ca         1 4FM      -0.103500
      2 C9          -2.5100    -0.5230     1.2410 ca         1 4FM      -0.103500
      3 C6          -2.6300    -0.1800    -1.5090 ca         1 4FM      -0.123500
      4 C8          -3.6120     0.1060     0.6780 ca         1 4FM      -0.123500
      5 C4          -1.4640    -0.9830     0.4510 ca         1 4FM      -0.120300
      6 C7          -3.6600     0.2720    -0.6960 ca         1 4FM       0.036400
      7 C1           2.9440     0.1860     0.3020 cc         1 4FM       0.136500
      8 C            4.1360     0.3110    -0.4860 cc         1 4FM       0.516900
      9 C2           1.8630    -0.8180     0.1550 c          1 4FM       0.606600
     10 C3          -0.2590    -1.6390     1.0780 c3         1 4FM       0.149300
     11 N2           2.9450     1.1360     1.1770 nd         1 4FM      -0.306300
     12 N1           4.7920     1.3440    -0.0350 nd         1 4FM      -0.439300
     13 N            4.5630    -0.4950    -1.4760 nv         1 4FM      -0.926500
     14 N3           0.9010    -0.7690     1.0800 ns         1 4FM      -0.546900
     15 O1           1.9100    -1.6160    -0.7710 o          1 4FM      -0.611100
     16 O            4.0460     1.8380     0.9900 os         1 4FM       0.121600
     17 CL          -5.0300     1.0540    -1.4150 cl         1 4FM      -0.107400
     18 H5          -0.7380    -1.1620    -1.5650 ha         1 4FM       0.141500
     19 H8          -2.4730    -0.6540     2.3160 ha         1 4FM       0.141500
     20 H6          -2.6790    -0.0510    -2.5820 ha         1 4FM       0.150000
     21 H7          -4.4160     0.4670     1.3050 ha         1 4FM       0.150000
     22 H4          -0.4750    -1.9080     2.1110 h1         1 4FM       0.069200
     23 H3          -0.0030    -2.5580     0.5530 h1         1 4FM       0.069200
     24 H1           3.8740    -1.0870    -1.9080 hn         1 4FM       0.443300
     25 H            5.2800    -0.1420    -2.0870 hn         1 4FM       0.443300
     26 H2           0.9370    -0.0450     1.7820 hn         1 4FM       0.337500
@<TRIPOS>BOND
     1     1     3 ar  
     2     1     5 ar  
     3     1    18 1   
     4     2     4 ar  
     5     2     5 ar  
     6     2    19 1   
     7     3     6 ar  
     8     3    20 1   
     9     4     6 ar  
    10     4    21 1   
    11     5    10 1   
    12     6    17 1   
    13     7     8 1   
    14     7     9 1   
    15     7    11 2   
    16     8    12 2   
    17     8    13 1   
    18     9    14 1   
    19     9    15 2   
    20    10    14 1   
    21    10    22 1   
    22    10    23 1   
    23    11    16 1   
    24    12    16 1   
    25    13    24 1   
    26    13    25 1   
    27    14    26 1   
@<TRIPOS>SUBSTRUCTURE
     1 4FM         1 TEMP              0 ****  ****    0 ROOT
