@<TRIPOS>MOLECULE
4FO
   17    16     1     0     0
SMALL
bcc


@<TRIPOS>ATOM
      1 N           -0.2610     1.8370     0.4260 n8         1 4FO      -0.876800
      2 CA          -0.2810     0.3830     0.4870 c3         1 4FO       0.019500
      3 C           -1.6070    -0.1670    -0.0840 c          1 4FO       0.935600
      4 O           -2.2300     0.5580    -0.8850 o          1 4FO      -0.836800
      5 CB           0.8800    -0.3190    -0.2360 c3         1 4FO      -0.103400
      6 CG           2.2580     0.0390     0.2980 c3         1 4FO       0.140800
      7 NZ           3.2920    -0.7320    -0.3820 n8         1 4FO      -0.884800
      8 OXT         -1.9230    -1.3200     0.2720 o          1 4FO      -0.836800
      9 H            0.6590     2.1890     0.6580 hn         1 4FO       0.316800
     10 H1          -0.4540     2.1250    -0.5250 hn         1 4FO       0.316800
     11 HA          -0.2280     0.0940     1.5440 h1         1 4FO       0.042700
     12 HB2          0.7500    -1.4010    -0.1520 hc         1 4FO       0.050200
     13 HB3          0.8310    -0.0770    -1.3060 hc         1 4FO       0.050200
     14 HG3          2.4160     1.1240     0.2180 h1         1 4FO       0.014200
     15 HG2          2.3000    -0.1990     1.3650 h1         1 4FO       0.014200
     16 HZ3          3.3040    -0.4760    -1.3620 hn         1 4FO       0.319300
     17 HZ2          4.2000    -0.4670    -0.0230 hn         1 4FO       0.319300
@<TRIPOS>BOND
     1     1     2 1   
     2     1     9 1   
     3     1    10 1   
     4     2     3 1   
     5     2     5 1   
     6     2    11 1   
     7     3     4 1   
     8     3     8 1   
     9     5     6 1   
    10     5    12 1   
    11     5    13 1   
    12     6     7 1   
    13     6    14 1   
    14     6    15 1   
    15     7    16 1   
    16     7    17 1   
@<TRIPOS>SUBSTRUCTURE
     1 4FO         1 TEMP              0 ****  ****    0 ROOT
