@<TRIPOS>MOLECULE
4FO
   17    16     1     0     0
SMALL
No Charge or Current Charge


@<TRIPOS>ATOM
      1 N           -0.2170     1.8620     0.4560 n8         1 4FO      -0.987200
      2 CA          -0.3140     0.3570     0.4600 c3         1 4FO       0.019500
      3 C           -1.6910    -0.2630    -0.0300 c          1 4FO       0.725000
      4 O           -2.0850     0.0030    -1.1600 o          1 4FO      -0.731500
      5 CB           0.8750    -0.2630    -0.3220 c3         1 4FO      -0.103400
      6 CG           2.2560    -0.0140     0.3250 c3         1 4FO       0.140800
      7 NZ           3.3320    -0.6750    -0.4320 n8         1 4FO      -0.995200
      8 OXT         -2.3440    -0.9300     0.7640 o          1 4FO      -0.731500
      9 H            0.7530     2.1410     0.6390 hn         1 4FO       0.372000
     10 H1          -0.3990     2.2020    -0.4960 hn         1 4FO       0.372000
     11 HA          -0.2010     0.0400     1.5070 h1         1 4FO       0.042700
     12 HB2          0.7160    -1.3470    -0.3850 hc         1 4FO       0.050200
     13 HB3          0.8730     0.1130    -1.3520 hc         1 4FO       0.050200
     14 HG3          2.4700     1.0630     0.3590 h1         1 4FO       0.014200
     15 HG2          2.2610    -0.4050     1.3510 h1         1 4FO       0.014200
     16 HZ3          3.3860    -0.2570    -1.3680 hn         1 4FO       0.374500
     17 HZ2          4.2350    -0.4360    -0.0050 hn         1 4FO       0.374500
@<TRIPOS>BOND
     1     1     2 1   
     2     1     9 1   
     3     1    10 1   
     4     2     3 1   
     5     2     5 1   
     6     2    11 1   
     7     3     4 1   
     8     3     8 1   
     9     5     6 1   
    10     5    12 1   
    11     5    13 1   
    12     6     7 1   
    13     6    14 1   
    14     6    15 1   
    15     7    16 1   
    16     7    17 1   
@<TRIPOS>SUBSTRUCTURE
     1 4FO         1 TEMP              0 ****  ****    0 ROOT
