@<TRIPOS>MOLECULE
4FP
   30    31     1     0     0
SMALL
No Charge or Current Charge


@<TRIPOS>ATOM
      1 F1           1.4880    -4.4550     6.8960 f          1 4FP      -0.181000
      2 C2           1.3270    -3.8280     5.7110 ca         1 4FP       0.166000
      3 C3           2.2450    -2.8440     5.3110 ca         1 4FP      -0.150000
      4 C4           2.0770    -2.1910     4.0770 ca         1 4FP      -0.083500
      5 C5           0.9910    -2.5200     3.2410 ca         1 4FP      -0.089300
      6 C6           0.8090    -1.8040     1.9070 c3         1 4FP      -0.026100
      7 C7           0.3080    -0.3360     2.0450 c6         1 4FP      -0.058700
      8 C8           0.2430     0.3770     0.6670 c6         1 4FP      -0.073400
      9 C9          -0.2900     1.8250     0.8060 c6         1 4FP       0.159800
     10 N10         -1.6090     1.8510     1.4820 n7         1 4FP      -0.861400
     11 C11         -1.5770     1.2180     2.8220 c6         1 4FP       0.159800
     12 C12         -1.0790    -0.2470     2.7430 c6         1 4FP      -0.073400
     13 C13          0.0750    -3.5100     3.6510 ca         1 4FP      -0.083500
     14 C14          0.2430    -4.1630     4.8850 ca         1 4FP      -0.150000
     15 H3           3.0820    -2.5900     5.9560 ha         1 4FP       0.130500
     16 H4           2.7900    -1.4280     3.7710 ha         1 4FP       0.115500
     17 H61          1.7660    -1.8120     1.3700 hc         1 4FP       0.049200
     18 H62          0.1160    -2.3700     1.2700 hc         1 4FP       0.049200
     19 H7           1.0450     0.1900     2.6690 hc         1 4FP       0.043700
     20 H81         -0.4080    -0.1860    -0.0170 hc         1 4FP       0.047450
     21 H82          1.2390     0.3970     0.2040 hc         1 4FP       0.047450
     22 H91          0.4290     2.4250     1.3850 h1         1 4FP       0.028450
     23 H92         -0.3790     2.2820    -0.1900 h1         1 4FP       0.028450
     24 HN10        -1.9080     2.8300     1.5850 hn         1 4FP       0.409000
     25 H111        -2.5840     1.2420     3.2630 h1         1 4FP       0.028450
     26 H112        -0.9110     1.7940     3.4810 h1         1 4FP       0.028450
     27 H121        -1.0240    -0.6630     3.7580 hc         1 4FP       0.047450
     28 H122        -1.8140    -0.8540     2.1960 hc         1 4FP       0.047450
     29 H13         -0.7690    -3.7720     3.0160 ha         1 4FP       0.115500
     30 H14         -0.4630    -4.9260     5.2020 ha         1 4FP       0.130500
@<TRIPOS>BOND
     1     1     2 1   
     2     2     3 ar  
     3     2    14 ar  
     4     3     4 ar  
     5     3    15 1   
     6     4     5 ar  
     7     4    16 1   
     8     5     6 1   
     9     5    13 ar  
    10     6     7 1   
    11     6    17 1   
    12     6    18 1   
    13     7     8 1   
    14     7    12 1   
    15     7    19 1   
    16     8     9 1   
    17     8    20 1   
    18     8    21 1   
    19     9    10 1   
    20     9    22 1   
    21     9    23 1   
    22    10    11 1   
    23    10    24 1   
    24    11    12 1   
    25    11    25 1   
    26    11    26 1   
    27    12    27 1   
    28    12    28 1   
    29    13    14 ar  
    30    13    29 1   
    31    14    30 1   
@<TRIPOS>SUBSTRUCTURE
     1 4FP         1 TEMP              0 ****  ****    0 ROOT
