@<TRIPOS>MOLECULE
4FP
   30    31     1     0     0
SMALL
bcc


@<TRIPOS>ATOM
      1 F1           1.4840    -4.3840     6.8460 f          1 4FP      -0.145900
      2 C2           1.3140    -3.7710     5.6610 ca         1 4FP       0.130900
      3 C3           2.2170    -2.7980     5.2740 ca         1 4FP      -0.168000
      4 C4           2.0340    -2.1750     4.0490 ca         1 4FP      -0.101500
      5 C5           0.9690    -2.5070     3.2130 ca         1 4FP      -0.089300
      6 C6           0.7720    -1.7950     1.9040 c3         1 4FP      -0.026100
      7 C7           0.2990    -0.3470     2.0650 c6         1 4FP      -0.058700
      8 C8           0.2550     0.3660     0.7150 c6         1 4FP      -0.073400
      9 C9          -0.2650     1.7890     0.8630 c6         1 4FP       0.159800
     10 N10         -1.5780     1.7740     1.4810 n7         1 4FP      -0.806200
     11 C11         -1.5360     1.1970     2.8130 c6         1 4FP       0.159800
     12 C12         -1.0640    -0.2490     2.7460 c6         1 4FP      -0.073400
     13 C13          0.0860    -3.4940     3.6420 ca         1 4FP      -0.101500
     14 C14          0.2480    -4.1340     4.8650 ca         1 4FP      -0.168000
     15 H3           3.0480    -2.5330     5.9150 ha         1 4FP       0.148500
     16 H4           2.7440    -1.4160     3.7400 ha         1 4FP       0.133500
     17 H61          1.7120    -1.7940     1.3430 hc         1 4FP       0.049200
     18 H62          0.0490    -2.3430     1.2930 hc         1 4FP       0.049200
     19 H7           1.0290     0.1790     2.6960 hc         1 4FP       0.043700
     20 H81         -0.3980    -0.1860     0.0300 hc         1 4FP       0.047450
     21 H82          1.2510     0.3830     0.2640 hc         1 4FP       0.047450
     22 H91          0.4680     2.3740     1.4450 h1         1 4FP       0.028450
     23 H92         -0.3410     2.2650    -0.1180 h1         1 4FP       0.028450
     24 HN10        -1.9350     2.7190     1.5370 hn         1 4FP       0.353800
     25 H111        -2.5370     1.2440     3.2490 h1         1 4FP       0.028450
     26 H112        -0.8670     1.7540     3.4910 h1         1 4FP       0.028450
     27 H121        -1.0180    -0.6640     3.7550 hc         1 4FP       0.047450
     28 H122        -1.7940    -0.8430     2.1860 hc         1 4FP       0.047450
     29 H13         -0.7470    -3.7790     3.0100 ha         1 4FP       0.133500
     30 H14         -0.4450    -4.9000     5.1870 ha         1 4FP       0.148500
@<TRIPOS>BOND
     1     1     2 1   
     2     2     3 ar  
     3     2    14 ar  
     4     3     4 ar  
     5     3    15 1   
     6     4     5 ar  
     7     4    16 1   
     8     5     6 1   
     9     5    13 ar  
    10     6     7 1   
    11     6    17 1   
    12     6    18 1   
    13     7     8 1   
    14     7    12 1   
    15     7    19 1   
    16     8     9 1   
    17     8    20 1   
    18     8    21 1   
    19     9    10 1   
    20     9    22 1   
    21     9    23 1   
    22    10    11 1   
    23    10    24 1   
    24    11    12 1   
    25    11    25 1   
    26    11    26 1   
    27    12    27 1   
    28    12    28 1   
    29    13    14 ar  
    30    13    29 1   
    31    14    30 1   
@<TRIPOS>SUBSTRUCTURE
     1 4FP         1 TEMP              0 ****  ****    0 ROOT
