@<TRIPOS>MOLECULE
4FQ
   66    70     1     0     0
SMALL
abcg2


@<TRIPOS>ATOM
      1 CAA          4.8620    -3.5330     0.2490 c3         1 4FQ      -0.082100
      2 CBN          5.0530    -2.0300     0.4190 c3         1 4FQ      -0.148700
      3 CAB          4.1430    -1.4750     1.5200 c3         1 4FQ      -0.082100
      4 CBA          6.4870    -1.6880     0.7740 c          1 4FQ       0.625300
      5 OAD          7.0960    -2.4040     1.5560 o          1 4FQ      -0.574100
      6 CBJ          7.1250    -0.4900     0.2450 cc         1 4FQ      -0.380800
      7 CBL          8.3920    -0.0470     0.6780 cd         1 4FQ      -0.038000
      8 CAR          9.3580    -0.4630     1.6140 cd         1 4FQ      -0.085000
      9 CAM         10.5060     0.2680     1.7530 cc         1 4FQ      -0.100000
     10 CAN         10.7270     1.4230     0.9720 cc         1 4FQ      -0.168000
     11 CAT          9.7870     1.8140     0.0720 cd         1 4FQ      -0.078000
     12 NBO          8.6560     1.0780    -0.0520 na         1 4FQ       0.321400
     13 NAZ          7.6770     1.3800    -0.9150 nd         1 4FQ      -0.603100
     14 CBG          6.7530     0.4530    -0.7490 cc         1 4FQ       0.449600
     15 CAW          5.5300     0.5640    -1.6030 c3         1 4FQ      -0.048400
     16 CBB          4.3130     1.0670    -0.8640 ca         1 4FQ      -0.089300
     17 CAU          3.0630     0.5220    -1.1240 ca         1 4FQ      -0.094000
     18 CAO          4.4100     2.0920     0.0720 ca         1 4FQ      -0.126000
     19 CAL          3.2780     2.5480     0.7390 ca         1 4FQ      -0.114000
     20 CAP          2.0350     2.0010     0.4790 ca         1 4FQ      -0.119000
     21 CBC          1.9230     0.9820    -0.4690 ca         1 4FQ       0.137400
     22 NAX          0.7290     0.3410    -0.8300 ne         1 4FQ      -0.278400
     23 NAY         -0.3100     0.8450    -0.3730 nf         1 4FQ      -0.203400
     24 CBE         -1.5060     0.2350    -0.7050 ca         1 4FQ      -0.102600
     25 CAQ         -1.6530    -0.9340    -1.4750 ca         1 4FQ      -0.073000
     26 CAS         -2.8910    -1.4230    -1.7430 ca         1 4FQ      -0.123000
     27 CBK         -4.0690    -0.7770    -1.2650 ca         1 4FQ       0.160000
     28 CBI         -5.3580    -1.2730    -1.5680 ca         1 4FQ      -0.327500
     29 SBQ         -5.6160    -2.7100    -2.6080 s6         1 4FQ       1.269100
     30 OAK         -4.9910    -2.3850    -3.9040 o          1 4FQ      -0.704867
     31 OAH         -4.9600    -3.8370    -1.9190 o          1 4FQ      -0.704867
     32 OAG         -7.0790    -2.8680    -2.7010 o          1 4FQ      -0.704867
     33 CAV         -6.4650    -0.6340    -1.0670 ca         1 4FQ       0.136000
     34 CBH         -6.3720     0.5020    -0.2740 ca         1 4FQ      -0.376500
     35 SBP         -7.8830     1.1550     0.4350 s6         1 4FQ       1.274100
     36 OAJ         -7.8100     2.6240     0.2610 o          1 4FQ      -0.704867
     37 OAF         -8.9840     0.5440    -0.3260 o          1 4FQ      -0.704867
     38 OAE         -7.8530     0.7510     1.8500 o          1 4FQ      -0.704867
     39 CBD         -5.1260     1.0660     0.0380 ca         1 4FQ       0.471000
     40 NAC         -5.0610     2.1770     0.7990 nv         1 4FQ      -1.102000
     41 CBM         -3.9450     0.4020    -0.4650 ca         1 4FQ      -0.192000
     42 CBF         -2.6310     0.8830    -0.2030 ca         1 4FQ       0.256100
     43 OAI         -2.4520     1.9800     0.5330 oh         1 4FQ      -0.548100
     44 H1           5.0800    -4.0740     1.1700 hc         1 4FQ       0.042200
     45 H2           3.8270    -3.7430    -0.0250 hc         1 4FQ       0.042200
     46 H3           5.5000    -3.9330    -0.5390 hc         1 4FQ       0.042200
     47 H4           4.7800    -1.5510    -0.5190 hc         1 4FQ       0.066700
     48 H5           4.3530    -1.9600     2.4750 hc         1 4FQ       0.042200
     49 H6           4.2650    -0.4000     1.6490 hc         1 4FQ       0.042200
     50 H7           3.0980    -1.6590     1.2670 hc         1 4FQ       0.042200
     51 H10          9.1840    -1.3480     2.2040 ha         1 4FQ       0.160000
     52 H11         11.2560    -0.0420     2.4670 ha         1 4FQ       0.119000
     53 H12         11.6320     2.0030     1.0750 ha         1 4FQ       0.127000
     54 H13          9.8650     2.6800    -0.5680 h4         1 4FQ       0.157000
     55 H14          5.7640     1.2590    -2.4130 hc         1 4FQ       0.066700
     56 H15          5.3080    -0.3920    -2.0800 hc         1 4FQ       0.066700
     57 H16          2.9530    -0.2800    -1.8460 ha         1 4FQ       0.125000
     58 H17          5.3730     2.5360     0.2930 ha         1 4FQ       0.105000
     59 H18          3.3710     3.3380     1.4720 ha         1 4FQ       0.101000
     60 H19          1.1630     2.3550     1.0120 ha         1 4FQ       0.126000
     61 H20         -0.7720    -1.4360    -1.8490 ha         1 4FQ       0.114000
     62 H21         -2.9710    -2.3240    -2.3280 ha         1 4FQ       0.151000
     63 H22         -7.4470    -1.0220    -1.2960 ha         1 4FQ       0.169000
     64 H23         -5.9010     2.7320     0.8800 hn         1 4FQ       0.497000
     65 H24         -4.1890     2.6600     0.9060 hn         1 4FQ       0.497000
     66 H25         -1.4930     2.1510     0.5780 ho         1 4FQ       0.485000
@<TRIPOS>BOND
     1     1     2 1   
     2     1    44 1   
     3     1    45 1   
     4     1    46 1   
     5     2     3 1   
     6     2     4 1   
     7     2    47 1   
     8     3    48 1   
     9     3    49 1   
    10     3    50 1   
    11     4     5 2   
    12     4     6 1   
    13     6     7 2   
    14     6    14 1   
    15     7     8 1   
    16     7    12 1   
    17     8     9 2   
    18     8    51 1   
    19     9    10 1   
    20     9    52 1   
    21    10    11 2   
    22    10    53 1   
    23    11    12 1   
    24    11    54 1   
    25    12    13 1   
    26    13    14 2   
    27    14    15 1   
    28    15    16 1   
    29    15    55 1   
    30    15    56 1   
    31    16    17 ar  
    32    16    18 ar  
    33    17    21 ar  
    34    17    57 1   
    35    18    19 ar  
    36    18    58 1   
    37    19    20 ar  
    38    19    59 1   
    39    20    21 ar  
    40    20    60 1   
    41    21    22 1   
    42    22    23 2   
    43    23    24 1   
    44    24    25 ar  
    45    24    42 ar  
    46    25    26 ar  
    47    25    61 1   
    48    26    27 ar  
    49    26    62 1   
    50    27    28 ar  
    51    27    41 ar  
    52    28    29 1   
    53    28    33 ar  
    54    29    30 1   
    55    29    31 1   
    56    29    32 1   
    57    33    34 ar  
    58    33    63 1   
    59    34    35 1   
    60    34    39 ar  
    61    35    36 1   
    62    35    37 1   
    63    35    38 1   
    64    39    40 1   
    65    39    41 ar  
    66    40    64 1   
    67    40    65 1   
    68    41    42 ar  
    69    42    43 1   
    70    43    66 1   
@<TRIPOS>SUBSTRUCTURE
     1 4FQ         1 TEMP              0 ****  ****    0 ROOT
