@<TRIPOS>MOLECULE
4FQ
   66    70     1     0     0
SMALL
No Charge or Current Charge


@<TRIPOS>ATOM
      1 CAA          5.0510    -3.4630     0.6670 c3         1 4FQ      -0.082100
      2 CBN          4.9740    -1.9240     0.8220 c3         1 4FQ      -0.148700
      3 CAB          3.8930    -1.5090     1.8510 c3         1 4FQ      -0.082100
      4 CBA          6.3570    -1.3280     1.1910 c          1 4FQ       0.625300
      5 OAD          6.8610    -1.7210     2.2350 o          1 4FQ      -0.574100
      6 CBJ          7.0900    -0.3350     0.3360 cc         1 4FQ      -0.380800
      7 CBL          8.3930     0.0640     0.5380 cd         1 4FQ      -0.038000
      8 CAR          9.3590    -0.3270     1.5220 cd         1 4FQ      -0.085000
      9 CAM         10.5890     0.2840     1.4050 cc         1 4FQ      -0.100000
     10 CAN         10.8450     1.2370     0.3530 cc         1 4FQ      -0.168000
     11 CAT          9.8960     1.6000    -0.6000 cd         1 4FQ      -0.078000
     12 NBO          8.6580     0.9690    -0.4650 na         1 4FQ       0.321400
     13 NAZ          7.6250     1.2170    -1.3210 nd         1 4FQ      -0.603100
     14 CBG          6.6780     0.4270    -0.8220 cc         1 4FQ       0.449600
     15 CAW          5.3140     0.4770    -1.4770 c3         1 4FQ      -0.048400
     16 CBB          4.1800     1.0030    -0.5940 ca         1 4FQ      -0.089300
     17 CAU          2.8730     0.5020    -0.7580 ca         1 4FQ      -0.094000
     18 CAO          4.4170     2.0040     0.3700 ca         1 4FQ      -0.126000
     19 CAL          3.3660     2.4780     1.1730 ca         1 4FQ      -0.114000
     20 CAP          2.0690     1.9620     1.0120 ca         1 4FQ      -0.119000
     21 CBC          1.8160     0.9760     0.0420 ca         1 4FQ       0.137400
     22 NAX          0.5170     0.4530    -0.1150 ne         1 4FQ      -0.278400
     23 NAY         -0.1670     0.9460    -1.0590 nf         1 4FQ      -0.203400
     24 CBE         -1.4730     0.4110    -1.2180 ca         1 4FQ      -0.102600
     25 CAQ         -1.6710    -0.6240    -2.1300 ca         1 4FQ      -0.073000
     26 CAS         -2.9510    -1.1470    -2.3240 ca         1 4FQ      -0.123000
     27 CBK         -4.0750    -0.6550    -1.6120 ca         1 4FQ       0.160000
     28 CBI         -5.3700    -1.1960    -1.8280 ca         1 4FQ      -0.327500
     29 SBQ         -5.7040    -2.5760    -3.0220 s6         1 4FQ       1.269100
     30 OAK         -5.2620    -1.9790    -4.2900 o          1 4FQ      -0.704867
     31 OAH         -4.8450    -3.6410    -2.4860 o          1 4FQ      -0.704867
     32 OAG         -7.1510    -2.7960    -2.8910 o          1 4FQ      -0.704867
     33 CAV         -6.4620    -0.6730    -1.1170 ca         1 4FQ       0.136000
     34 CBH         -6.3030     0.3660    -0.1930 ca         1 4FQ      -0.376500
     35 SBP         -7.8110     0.9430     0.6920 s6         1 4FQ       1.274100
     36 OAJ         -7.5560     2.3770     0.8940 o          1 4FQ      -0.704867
     37 OAF         -8.8790     0.6120    -0.2610 o          1 4FQ      -0.704867
     38 OAE         -7.7600     0.1090     1.9000 o          1 4FQ      -0.704867
     39 CBD         -5.0230     0.8760     0.0550 ca         1 4FQ       0.471000
     40 NAC         -4.8890     1.8360     1.0040 nv         1 4FQ      -1.102000
     41 CBM         -3.8890     0.3980    -0.6660 ca         1 4FQ      -0.192000
     42 CBF         -2.5670     0.9260    -0.4920 ca         1 4FQ       0.256100
     43 OAI         -2.2710     1.9600     0.3540 oh         1 4FQ      -0.548100
     44 H1           5.3230    -3.9430     1.6150 hc         1 4FQ       0.042200
     45 H2           4.0850    -3.8690     0.3440 hc         1 4FQ       0.042200
     46 H3           5.8020    -3.7370    -0.0840 hc         1 4FQ       0.042200
     47 H4           4.6540    -1.5560    -0.1430 hc         1 4FQ       0.066700
     48 H5           4.0970    -1.9510     2.8340 hc         1 4FQ       0.042200
     49 H6           3.8660    -0.4200     1.9700 hc         1 4FQ       0.042200
     50 H7           2.9000    -1.8410     1.5260 hc         1 4FQ       0.042200
     51 H10          9.1680    -1.0470     2.3080 ha         1 4FQ       0.160000
     52 H11         11.3850     0.0520     2.1070 ha         1 4FQ       0.119000
     53 H12         11.8330     1.6860     0.3120 ha         1 4FQ       0.127000
     54 H13         10.0310     2.3050    -1.4100 h4         1 4FQ       0.157000
     55 H14          5.3730     1.1370    -2.3510 hc         1 4FQ       0.066700
     56 H15          5.0790    -0.4990    -1.9140 hc         1 4FQ       0.066700
     57 H16          2.6710    -0.2620    -1.5050 ha         1 4FQ       0.125000
     58 H17          5.4130     2.4200     0.5030 ha         1 4FQ       0.105000
     59 H18          3.5560     3.2460     1.9190 ha         1 4FQ       0.101000
     60 H19          1.2590     2.3270     1.6390 ha         1 4FQ       0.126000
     61 H20         -0.8320    -1.0230    -2.6960 ha         1 4FQ       0.114000
     62 H21         -3.0380    -1.9460    -3.0500 ha         1 4FQ       0.151000
     63 H22         -7.4570    -1.0870    -1.2730 ha         1 4FQ       0.169000
     64 H23         -5.7310     2.3830     1.1930 hn         1 4FQ       0.497000
     65 H24         -3.9980     2.3280     1.0180 hn         1 4FQ       0.497000
     66 H25         -1.2940     2.0550     0.3010 ho         1 4FQ       0.485000
@<TRIPOS>BOND
     1     1     2 1   
     2     1    44 1   
     3     1    45 1   
     4     1    46 1   
     5     2     3 1   
     6     2     4 1   
     7     2    47 1   
     8     3    48 1   
     9     3    49 1   
    10     3    50 1   
    11     4     5 2   
    12     4     6 1   
    13     6     7 2   
    14     6    14 1   
    15     7     8 1   
    16     7    12 1   
    17     8     9 2   
    18     8    51 1   
    19     9    10 1   
    20     9    52 1   
    21    10    11 2   
    22    10    53 1   
    23    11    12 1   
    24    11    54 1   
    25    12    13 1   
    26    13    14 2   
    27    14    15 1   
    28    15    16 1   
    29    15    55 1   
    30    15    56 1   
    31    16    17 ar  
    32    16    18 ar  
    33    17    21 ar  
    34    17    57 1   
    35    18    19 ar  
    36    18    58 1   
    37    19    20 ar  
    38    19    59 1   
    39    20    21 ar  
    40    20    60 1   
    41    21    22 1   
    42    22    23 2   
    43    23    24 1   
    44    24    25 ar  
    45    24    42 ar  
    46    25    26 ar  
    47    25    61 1   
    48    26    27 ar  
    49    26    62 1   
    50    27    28 ar  
    51    27    41 ar  
    52    28    29 1   
    53    28    33 ar  
    54    29    30 1   
    55    29    31 1   
    56    29    32 1   
    57    33    34 ar  
    58    33    63 1   
    59    34    35 1   
    60    34    39 ar  
    61    35    36 1   
    62    35    37 1   
    63    35    38 1   
    64    39    40 1   
    65    39    41 ar  
    66    40    64 1   
    67    40    65 1   
    68    41    42 ar  
    69    42    43 1   
    70    43    66 1   
@<TRIPOS>SUBSTRUCTURE
     1 4FQ         1 TEMP              0 ****  ****    0 ROOT
