@<TRIPOS>MOLECULE
4FR
   79    84     1     0     0
SMALL
No Charge or Current Charge


@<TRIPOS>ATOM
      1 C31          9.2770     1.2200    -2.9670 ca         1 4FR      -0.110000
      2 C30          9.1020     1.9630    -1.7910 ca         1 4FR      -0.094000
      3 C28          7.2370     0.5050    -1.1150 cp         1 4FR       0.003000
      4 C23          5.2730     1.0920     0.3630 ca         1 4FR      -0.087000
      5 C22          6.2450     0.1520    -0.0560 cp         1 4FR      -0.008000
      6 C17          2.5190     3.5170     2.5200 cc         1 4FR       0.403900
      7 C20          5.3590    -1.4230     1.5990 ca         1 4FR       0.136000
      8 C12          1.4460     2.6370     2.1420 ca         1 4FR      -0.335900
      9 C13          0.0600     2.7670     2.1910 ca         1 4FR       0.463900
     10 C11          2.0290     1.5170     1.6680 ca         1 4FR       0.054800
     11 C10          1.2440     0.4610     1.2060 ca         1 4FR      -0.263000
     12 C9          -0.1460     0.6510     1.2670 ca         1 4FR       0.648900
     13 O40         -7.1640    -2.1570     0.0150 o          1 4FR      -0.612100
     14 N42         -7.3960     0.0680    -0.3460 ns         1 4FR      -0.499900
     15 C43         -8.8370     0.0840    -0.6300 c6         1 4FR       0.110700
     16 C45         -9.4250     1.4870    -0.3530 c6         1 4FR      -0.092400
     17 C46        -10.9290     1.5350    -0.7100 c6         1 4FR       0.168300
     18 N47        -11.1620     1.1510    -2.1290 n3         1 4FR      -0.718600
     19 C48        -12.5800     1.2910    -2.5240 c3         1 4FR       0.153100
     20 C49        -10.6230    -0.2030    -2.4250 c6         1 4FR       0.168300
     21 C44         -9.1120    -0.2920    -2.1050 c6         1 4FR      -0.092400
     22 C50         -5.1630    -0.8330     0.1840 ca         1 4FR      -0.152600
     23 C55         -4.5650     0.4460     0.0940 ca         1 4FR      -0.088000
     24 C56         -3.1880     0.6110     0.3200 ca         1 4FR      -0.130000
     25 C57         -2.3720    -0.4860     0.6520 ca         1 4FR       0.318000
     26 C52         -2.9520    -1.7780     0.7220 ca         1 4FR       0.068100
     27 O53         -2.1280    -2.8590     1.0150 os         1 4FR      -0.369100
     28 C54         -2.6210    -4.2090     1.1120 c3         1 4FR       0.154900
     29 C51         -4.3390    -1.9400     0.4950 ca         1 4FR      -0.116000
     30 N8          -0.9900    -0.3560     0.8640 nu         1 4FR      -0.928900
     31 N14         -0.7360     1.7590     1.7540 nb         1 4FR      -0.756000
     32 N16          3.7210     2.9650     2.2890 nd         1 4FR      -0.519100
     33 N15          3.3890     1.7170     1.7620 na         1 4FR       0.155800
     34 C18          4.3450     0.7790     1.3740 ca         1 4FR       0.048800
     35 C19          4.3930    -0.4850     1.9930 ca         1 4FR      -0.126000
     36 Cl           5.4190    -2.9970     2.3800 cl         1 4FR      -0.198000
     37 C21          6.2800    -1.1070     0.5890 ca         1 4FR      -0.095000
     38 C33          7.4130    -0.2280    -2.3320 ca         1 4FR      -0.138600
     39 C34          6.4640    -1.3720    -2.6300 c          1 4FR       0.613700
     40 O35          5.2960    -1.4080    -2.2780 o          1 4FR      -0.584100
     41 N36          6.9450    -2.3800    -3.3900 nt         1 4FR      -0.609000
     42 C29          8.0960     1.6070    -0.8790 ca         1 4FR      -0.102000
     43 C32          8.4390     0.1270    -3.2390 ca         1 4FR      -0.092000
     44 H31         10.0580     1.4950    -3.6730 ha         1 4FR       0.118000
     45 H30          9.7510     2.8110    -1.5820 ha         1 4FR       0.119000
     46 H26          1.7910     4.8440     4.0410 hc         1 4FR       0.054033
     47 H26A         3.3210     5.3570     3.3030 hc         1 4FR       0.054033
     48 H26B         1.8010     5.5350     2.4060 hc         1 4FR       0.054033
     49 H23          5.2370     2.0690    -0.1130 ha         1 4FR       0.145000
     50 H13         -0.4240     3.6640     2.5760 h4         1 4FR       0.024100
     51 H10          1.6800    -0.4510     0.8130 ha         1 4FR       0.138000
     52 HN42        -6.8970     0.9460    -0.3800 hn         1 4FR       0.313500
     53 H43         -9.3350    -0.6450     0.0270 h1         1 4FR       0.074700
     54 H45         -9.2910     1.7480     0.7050 hc         1 4FR       0.053200
     55 H45A        -8.8880     2.2460    -0.9380 hc         1 4FR       0.053200
     56 H46        -11.4810     0.8610    -0.0370 h1         1 4FR       0.033450
     57 H46A       -11.3030     2.5530    -0.5250 h1         1 4FR       0.033450
     58 H48        -12.9310     2.3180    -2.3530 h1         1 4FR       0.030033
     59 H48A       -12.7090     1.0630    -3.5900 h1         1 4FR       0.030033
     60 H48B       -13.2170     0.6080    -1.9460 h1         1 4FR       0.030033
     61 H49        -11.1590    -0.9640    -1.8390 h1         1 4FR       0.033450
     62 H49A       -10.7730    -0.4480    -3.4870 h1         1 4FR       0.033450
     63 H44         -8.5560     0.3780    -2.7760 hc         1 4FR       0.053200
     64 H44A        -8.7540    -1.3090    -2.3090 hc         1 4FR       0.053200
     65 H55         -5.1500     1.3270    -0.1570 ha         1 4FR       0.113000
     66 H56         -2.7580     1.6010     0.2190 ha         1 4FR       0.155000
     67 H54         -3.3750    -4.2930     1.9050 h1         1 4FR       0.044700
     68 H54A        -3.0680    -4.5310     0.1630 h1         1 4FR       0.044700
     69 H54B        -1.8010    -4.8970     1.3510 h1         1 4FR       0.044700
     70 H51         -4.7920    -2.9260     0.5550 ha         1 4FR       0.139000
     71 HN8         -0.5200    -1.2570     0.8500 hn         1 4FR       0.516000
     72 H19          3.6870    -0.7370     2.7790 ha         1 4FR       0.141000
     73 H21          7.0290    -1.8400     0.3010 ha         1 4FR       0.131000
     74 HN36         7.9090    -2.3710    -3.6880 hn         1 4FR       0.316000
     75 HN3A         6.3390    -3.1510    -3.6270 hn         1 4FR       0.316000
     76 H29          7.9880     2.1810     0.0380 ha         1 4FR       0.125000
     77 H32          8.5740    -0.4190    -4.1690 ha         1 4FR       0.117000
     78 C26          2.3510     4.8890     3.0990 c3         1 4FR      -0.107400
     79 C41         -6.6470    -1.0500    -0.0520 c          1 4FR       0.617700
@<TRIPOS>BOND
     1     1     2 ar  
     2     1    43 ar  
     3     1    44 1   
     4     2    42 ar  
     5     2    45 1   
     6     3     5 1   
     7     3    38 ar  
     8     3    42 ar  
     9     4     5 ar  
    10     4    34 ar  
    11     4    49 1   
    12     5    37 ar  
    13     6     8 1   
    14     6    32 2   
    15     6    78 1   
    16     7    35 ar  
    17     7    36 1   
    18     7    37 ar  
    19     8     9 ar  
    20     8    10 ar  
    21     9    31 ar  
    22     9    50 1   
    23    10    11 ar  
    24    10    33 1   
    25    11    12 ar  
    26    11    51 1   
    27    12    30 1   
    28    12    31 ar  
    29    13    79 2   
    30    14    15 1   
    31    14    52 1   
    32    14    79 1   
    33    15    16 1   
    34    15    21 1   
    35    15    53 1   
    36    16    17 1   
    37    16    54 1   
    38    16    55 1   
    39    17    18 1   
    40    17    56 1   
    41    17    57 1   
    42    18    19 1   
    43    18    20 1   
    44    19    58 1   
    45    19    59 1   
    46    19    60 1   
    47    20    21 1   
    48    20    61 1   
    49    20    62 1   
    50    21    63 1   
    51    21    64 1   
    52    22    23 ar  
    53    22    29 ar  
    54    22    79 1   
    55    23    24 ar  
    56    23    65 1   
    57    24    25 ar  
    58    24    66 1   
    59    25    26 ar  
    60    25    30 1   
    61    26    27 1   
    62    26    29 ar  
    63    27    28 1   
    64    28    67 1   
    65    28    68 1   
    66    28    69 1   
    67    29    70 1   
    68    30    71 1   
    69    32    33 1   
    70    33    34 1   
    71    34    35 ar  
    72    35    72 1   
    73    37    73 1   
    74    38    39 1   
    75    38    43 ar  
    76    39    40 2   
    77    39    41 1   
    78    41    74 1   
    79    41    75 1   
    80    42    76 1   
    81    43    77 1   
    82    46    78 1   
    83    47    78 1   
    84    48    78 1   
@<TRIPOS>SUBSTRUCTURE
     1 4FR         1 TEMP              0 ****  ****    0 ROOT
