@<TRIPOS>MOLECULE
4FR
   79    84     1     0     0
SMALL
abcg2


@<TRIPOS>ATOM
      1 C31         10.2150     1.2130    -1.5030 ca         1 4FR      -0.110000
      2 C30          9.6140     1.9190    -0.4720 ca         1 4FR      -0.094000
      3 C28          7.7020     0.4350    -0.5480 cp         1 4FR       0.003000
      4 C23          5.4070     0.9760     0.2260 ca         1 4FR      -0.087000
      5 C22          6.4050     0.0290     0.0350 cp         1 4FR      -0.008000
      6 C17          2.4930     3.5710     1.4110 cc         1 4FR       0.403900
      7 C20          4.9920    -1.6260     1.0290 ca         1 4FR       0.136000
      8 C12          1.3470     2.7380     1.2260 ca         1 4FR      -0.335900
      9 C13         -0.0290     2.9060     1.2280 ca         1 4FR       0.463900
     10 C11          1.8580     1.4560     0.9610 ca         1 4FR       0.054800
     11 C10          1.0070     0.3990     0.6780 ca         1 4FR      -0.263000
     12 C9          -0.3590     0.6940     0.7050 ca         1 4FR       0.648900
     13 O40         -7.3390    -2.0780     0.2580 o          1 4FR      -0.612100
     14 N42         -7.6340     0.1280    -0.1240 ns         1 4FR      -0.499900
     15 C43         -9.0780     0.0830    -0.2380 c6         1 4FR       0.110700
     16 C45         -9.6680     1.4330     0.1490 c6         1 4FR      -0.092400
     17 C46        -11.1780     1.4280    -0.0240 c6         1 4FR       0.168300
     18 N47        -11.5560     1.0750    -1.3790 n3         1 4FR      -0.718600
     19 C48        -12.9850     1.1650    -1.5680 c3         1 4FR       0.153100
     20 C49        -11.0570    -0.2390    -1.7390 c6         1 4FR       0.168300
     21 C44         -9.5410    -0.3000    -1.6420 c6         1 4FR      -0.092400
     22 C50         -5.4030    -0.7100     0.1980 ca         1 4FR      -0.152600
     23 C55         -4.8540     0.5140     0.5450 ca         1 4FR      -0.088000
     24 C56         -3.4780     0.6840     0.6370 ca         1 4FR      -0.130000
     25 C57         -2.6100    -0.3730     0.3750 ca         1 4FR       0.318000
     26 C52         -3.1760    -1.6260     0.0260 ca         1 4FR       0.068100
     27 O53         -2.2810    -2.6060    -0.2120 os         1 4FR      -0.369100
     28 C54         -2.7500    -3.8860    -0.5880 c3         1 4FR       0.154900
     29 C51         -4.5430    -1.7860    -0.0460 ca         1 4FR      -0.116000
     30 N8          -1.2300    -0.3290     0.4300 nu         1 4FR      -0.928900
     31 N14         -0.8550     1.9100     0.9810 nb         1 4FR      -0.756000
     32 N16          3.5780     2.8680     1.2780 nd         1 4FR      -0.519100
     33 N15          3.2130     1.5830     1.0160 na         1 4FR       0.155800
     34 C18          4.2050     0.6140     0.8240 ca         1 4FR       0.048800
     35 C19          3.9910    -0.6930     1.2460 ca         1 4FR      -0.126000
     36 CL           4.7380    -3.2550     1.5560 cl         1 4FR      -0.198000
     37 C21          6.1950    -1.2880     0.4390 ca         1 4FR      -0.095000
     38 C33          8.3090    -0.2680    -1.5950 ca         1 4FR      -0.138600
     39 C34          7.5800    -1.3650    -2.3130 c          1 4FR       0.613700
     40 O35          6.4560    -1.1940    -2.7570 o          1 4FR      -0.584100
     41 N36          8.2690    -2.5070    -2.4430 nt         1 4FR      -0.609000
     42 C29          8.3710     1.5270     0.0020 ca         1 4FR      -0.102000
     43 C32          9.5620     0.1210    -2.0570 ca         1 4FR      -0.092000
     44 H31         11.1840     1.5100    -1.8790 ha         1 4FR       0.118000
     45 H30         10.1150     2.7700    -0.0290 ha         1 4FR       0.119000
     46 H26          1.9760     5.2440     2.6310 hc         1 4FR       0.054033
     47 H26A         3.5410     5.3800     1.8220 hc         1 4FR       0.054033
     48 H26B         2.0430     5.5950     0.9110 hc         1 4FR       0.054033
     49 H23          5.5590     1.9960    -0.1000 ha         1 4FR       0.145000
     50 H13         -0.4770     3.8720     1.4340 h4         1 4FR       0.024100
     51 H10          1.3530    -0.5950     0.4350 ha         1 4FR       0.138000
     52 HN42        -7.1840     0.9840    -0.4070 hn         1 4FR       0.313500
     53 H43         -9.4440    -0.6710     0.4650 h1         1 4FR       0.074700
     54 H45         -9.4210     1.6720     1.1850 hc         1 4FR       0.053200
     55 H45A        -9.2340     2.2180    -0.4790 hc         1 4FR       0.053200
     56 H46        -11.6260     0.7370     0.7130 h1         1 4FR       0.033450
     57 H46A       -11.5730     2.4210     0.2020 h1         1 4FR       0.033450
     58 H48        -13.3320     2.1760    -1.3470 h1         1 4FR       0.030033
     59 H48A       -13.2420     0.9440    -2.6050 h1         1 4FR       0.030033
     60 H48B       -13.5520     0.4700    -0.9280 h1         1 4FR       0.030033
     61 H49        -11.4970    -1.0260    -1.1000 h1         1 4FR       0.033450
     62 H49A       -11.3670    -0.4620    -2.7630 h1         1 4FR       0.033450
     63 H44         -9.0980     0.3880    -2.3690 hc         1 4FR       0.053200
     64 H44A        -9.1980    -1.3060    -1.8900 hc         1 4FR       0.053200
     65 H55         -5.4810     1.3640     0.7820 ha         1 4FR       0.113000
     66 H56         -3.0790     1.6420     0.9210 ha         1 4FR       0.155000
     67 H54         -3.3750    -4.3330     0.1890 h1         1 4FR       0.044700
     68 H54A        -3.3160    -3.8500    -1.5220 h1         1 4FR       0.044700
     69 H54B        -1.8690    -4.5060    -0.7330 h1         1 4FR       0.044700
     70 H51         -4.9690    -2.7450    -0.3060 ha         1 4FR       0.139000
     71 HN8         -0.7830    -1.2090     0.2210 hn         1 4FR       0.516000
     72 H19          3.0870    -0.9760     1.7660 ha         1 4FR       0.141000
     73 H21          6.9690    -2.0340     0.3140 ha         1 4FR       0.131000
     74 HN36         9.1660    -2.6410    -2.0100 hn         1 4FR       0.316000
     75 HN3A         7.8760    -3.2840    -2.9500 hn         1 4FR       0.316000
     76 H29          7.9210     2.0640     0.8270 ha         1 4FR       0.125000
     77 H32         10.0240    -0.4170    -2.8760 ha         1 4FR       0.117000
     78 C26          2.5190     5.0260     1.7110 c3         1 4FR      -0.107400
     79 C41         -6.8710    -0.9540     0.1120 c          1 4FR       0.617700
@<TRIPOS>BOND
     1     1     2 ar  
     2     1    43 ar  
     3     1    44 1   
     4     2    42 ar  
     5     2    45 1   
     6     3     5 1   
     7     3    38 ar  
     8     3    42 ar  
     9     4     5 ar  
    10     4    34 ar  
    11     4    49 1   
    12     5    37 ar  
    13     6     8 1   
    14     6    32 2   
    15     6    78 1   
    16     7    35 ar  
    17     7    36 1   
    18     7    37 ar  
    19     8     9 ar  
    20     8    10 ar  
    21     9    31 ar  
    22     9    50 1   
    23    10    11 ar  
    24    10    33 1   
    25    11    12 ar  
    26    11    51 1   
    27    12    30 1   
    28    12    31 ar  
    29    13    79 2   
    30    14    15 1   
    31    14    52 1   
    32    14    79 1   
    33    15    16 1   
    34    15    21 1   
    35    15    53 1   
    36    16    17 1   
    37    16    54 1   
    38    16    55 1   
    39    17    18 1   
    40    17    56 1   
    41    17    57 1   
    42    18    19 1   
    43    18    20 1   
    44    19    58 1   
    45    19    59 1   
    46    19    60 1   
    47    20    21 1   
    48    20    61 1   
    49    20    62 1   
    50    21    63 1   
    51    21    64 1   
    52    22    23 ar  
    53    22    29 ar  
    54    22    79 1   
    55    23    24 ar  
    56    23    65 1   
    57    24    25 ar  
    58    24    66 1   
    59    25    26 ar  
    60    25    30 1   
    61    26    27 1   
    62    26    29 ar  
    63    27    28 1   
    64    28    67 1   
    65    28    68 1   
    66    28    69 1   
    67    29    70 1   
    68    30    71 1   
    69    32    33 1   
    70    33    34 1   
    71    34    35 ar  
    72    35    72 1   
    73    37    73 1   
    74    38    39 1   
    75    38    43 ar  
    76    39    40 2   
    77    39    41 1   
    78    41    74 1   
    79    41    75 1   
    80    42    76 1   
    81    43    77 1   
    82    46    78 1   
    83    47    78 1   
    84    48    78 1   
@<TRIPOS>SUBSTRUCTURE
     1 4FR         1 TEMP              0 ****  ****    0 ROOT
