@<TRIPOS>MOLECULE
4FS
   19    20     1     0     0
SMALL
No Charge or Current Charge


@<TRIPOS>ATOM
      1 C1           1.7790     1.1670     0.0320 ca         1 4FS       0.313900
      2 C5          -2.7010    -1.0290    -0.0080 ca         1 4FS      -0.096000
      3 C3          -1.8430     1.2490    -0.0210 ca         1 4FS      -0.066000
      4 C6          -1.3870    -1.5220     0.0160 ca         1 4FS      -0.108000
      5 C            2.0890    -0.2240     0.0520 ca         1 4FS       0.241000
      6 C8           1.0190    -1.1300     0.0470 ca         1 4FS      -0.161000
      7 C7          -0.2980    -0.6290     0.0220 ca         1 4FS      -0.034000
      8 C2          -0.5160     0.7760     0.0030 ca         1 4FS       0.228000
      9 N1           0.5120     1.6580     0.0080 nb         1 4FS      -0.634000
     10 C4          -2.9290     0.3550    -0.0270 ca         1 4FS      -0.121000
     11 H1           2.5760     1.9090     0.0360 h4         1 4FS       0.015100
     12 H2          -3.5420    -1.7200    -0.0130 ha         1 4FS       0.112000
     13 H3          -2.0290     2.3190    -0.0360 ha         1 4FS       0.128000
     14 H4          -1.2160    -2.5960     0.0310 ha         1 4FS       0.113000
     15 H5           4.1840    -0.0800    -0.0120 hn         1 4FS       0.454000
     16 H6           3.5660    -1.7130    -0.0040 hn         1 4FS       0.454000
     17 H7           1.2030    -2.2010     0.0620 ha         1 4FS       0.118000
     18 H8          -3.9470     0.7390    -0.0460 ha         1 4FS       0.115000
     19 N            3.3880    -0.7120     0.0760 nv         1 4FS      -1.071000
@<TRIPOS>BOND
     1     1     5 ar  
     2     1     9 ar  
     3     1    11 1   
     4     2     4 ar  
     5     2    10 ar  
     6     2    12 1   
     7     3     8 ar  
     8     3    10 ar  
     9     3    13 1   
    10     4     7 ar  
    11     4    14 1   
    12     5     6 ar  
    13     5    19 1   
    14     6     7 ar  
    15     6    17 1   
    16     7     8 ar  
    17     8     9 ar  
    18    10    18 1   
    19    15    19 1   
    20    16    19 1   
@<TRIPOS>SUBSTRUCTURE
     1 4FS         1 TEMP              0 ****  ****    0 ROOT
