@<TRIPOS>MOLECULE
4FS
   19    20     1     0     0
SMALL
abcg2


@<TRIPOS>ATOM
      1 C1           1.7470     1.1210     0.0560 ca         1 4FS       0.313900
      2 C5          -2.6900    -1.0130    -0.0160 ca         1 4FS      -0.096000
      3 C3          -1.8220     1.2340    -0.0310 ca         1 4FS      -0.066000
      4 C6          -1.4240    -1.5320     0.0240 ca         1 4FS      -0.108000
      5 C            2.0760    -0.2670     0.0920 ca         1 4FS       0.241000
      6 C8           1.0270    -1.1570     0.0770 ca         1 4FS      -0.161000
      7 C7          -0.2970    -0.6760     0.0390 ca         1 4FS      -0.034000
      8 C2          -0.5060     0.7250     0.0090 ca         1 4FS       0.228000
      9 N1           0.5370     1.5920     0.0160 nb         1 4FS      -0.634000
     10 C4          -2.8940     0.3830    -0.0430 ca         1 4FS      -0.121000
     11 H1           2.5580     1.8460     0.0630 h4         1 4FS       0.015100
     12 H2          -3.5440    -1.6770    -0.0300 ha         1 4FS       0.112000
     13 H3          -1.9580     2.3080    -0.0520 ha         1 4FS       0.128000
     14 H4          -1.2720    -2.6040     0.0430 ha         1 4FS       0.113000
     15 H5           4.0690     0.0140    -0.1670 hn         1 4FS       0.454000
     16 H6           3.6050    -1.5910    -0.0760 hn         1 4FS       0.454000
     17 H7           1.2050    -2.2260     0.0950 ha         1 4FS       0.118000
     18 H8          -3.9020     0.7770    -0.0710 ha         1 4FS       0.115000
     19 N            3.3920    -0.6420     0.1880 nv         1 4FS      -1.071000
@<TRIPOS>BOND
     1     1     5 ar  
     2     1     9 ar  
     3     1    11 1   
     4     2     4 ar  
     5     2    10 ar  
     6     2    12 1   
     7     3     8 ar  
     8     3    10 ar  
     9     3    13 1   
    10     4     7 ar  
    11     4    14 1   
    12     5     6 ar  
    13     5    19 1   
    14     6     7 ar  
    15     6    17 1   
    16     7     8 ar  
    17     8     9 ar  
    18    10    18 1   
    19    15    19 1   
    20    16    19 1   
@<TRIPOS>SUBSTRUCTURE
     1 4FS         1 TEMP              0 ****  ****    0 ROOT
