@<TRIPOS>MOLECULE
4FT
   16    17     1     0     0
SMALL
abcg2


@<TRIPOS>ATOM
      1 C4          -1.2170    -1.3460    -0.0250 ca         1 4FT       0.307900
      2 C5           0.0550    -0.7210    -0.0010 ca         1 4FT      -0.071000
      3 C6           0.0500     0.6820     0.0200 ca         1 4FT      -0.071000
      4 C7           1.2650     1.3910     0.0450 ca         1 4FT      -0.084000
      5 C8           2.4460     0.6940     0.0490 ca         1 4FT      -0.096000
      6 C9           2.4510    -0.7160     0.0290 ca         1 4FT      -0.096000
      7 C10          1.2750    -1.4210     0.0040 ca         1 4FT      -0.084000
      8 N3          -2.3450    -0.7010    -0.0290 nb         1 4FT      -0.326000
      9 N2          -2.3500     0.6450    -0.0080 nb         1 4FT      -0.326000
     10 C1          -1.2270     1.2980     0.0140 ca         1 4FT       0.307900
     11 H1          -1.2860    -2.4290    -0.0420 h4         1 4FT       0.026100
     12 H2           1.2580     2.4730     0.0610 ha         1 4FT       0.124000
     13 H3           3.3870     1.2270     0.0700 ha         1 4FT       0.120000
     14 H4           3.3970    -1.2420     0.0330 ha         1 4FT       0.120000
     15 H5           1.2770    -2.5030    -0.0120 ha         1 4FT       0.124000
     16 H6          -1.3040     2.3810     0.0290 h4         1 4FT       0.026100
@<TRIPOS>BOND
     1     1     2 ar  
     2     1     8 ar  
     3     1    11 1   
     4     2     3 ar  
     5     2     7 ar  
     6     3     4 ar  
     7     3    10 ar  
     8     4     5 ar  
     9     4    12 1   
    10     5     6 ar  
    11     5    13 1   
    12     6     7 ar  
    13     6    14 1   
    14     7    15 1   
    15     8     9 ar  
    16     9    10 ar  
    17    10    16 1   
@<TRIPOS>SUBSTRUCTURE
     1 4FT         1 TEMP              0 ****  ****    0 ROOT
