@<TRIPOS>MOLECULE
4FT
   16    17     1     0     0
SMALL
No Charge or Current Charge


@<TRIPOS>ATOM
      1 C4          -1.2050    -1.3910    -0.0260 ca         1 4FT       0.307900
      2 C5           0.0390    -0.7250    -0.0010 ca         1 4FT      -0.071000
      3 C6           0.0340     0.6860     0.0200 ca         1 4FT      -0.071000
      4 C7           1.2490     1.3970     0.0450 ca         1 4FT      -0.084000
      5 C8           2.4670     0.6930     0.0500 ca         1 4FT      -0.096000
      6 C9           2.4720    -0.7140     0.0290 ca         1 4FT      -0.096000
      7 C10          1.2590    -1.4270     0.0040 ca         1 4FT      -0.084000
      8 N3          -2.3760    -0.7040    -0.0300 nb         1 4FT      -0.326000
      9 N2          -2.3810     0.6480    -0.0100 nb         1 4FT      -0.326000
     10 C1          -1.2150     1.3430     0.0150 ca         1 4FT       0.307900
     11 H1          -1.2700    -2.4780    -0.0420 h4         1 4FT       0.026100
     12 H2           1.2510     2.4850     0.0620 ha         1 4FT       0.124000
     13 H3           3.4080     1.2390     0.0690 ha         1 4FT       0.120000
     14 H4           3.4180    -1.2530     0.0330 ha         1 4FT       0.120000
     15 H5           1.2700    -2.5150    -0.0120 ha         1 4FT       0.124000
     16 H6          -1.2890     2.4300     0.0300 h4         1 4FT       0.026100
@<TRIPOS>BOND
     1     1     2 ar  
     2     1     8 ar  
     3     1    11 1   
     4     2     3 ar  
     5     2     7 ar  
     6     3     4 ar  
     7     3    10 ar  
     8     4     5 ar  
     9     4    12 1   
    10     5     6 ar  
    11     5    13 1   
    12     6     7 ar  
    13     6    14 1   
    14     7    15 1   
    15     8     9 ar  
    16     9    10 ar  
    17    10    16 1   
@<TRIPOS>SUBSTRUCTURE
     1 4FT         1 TEMP              0 ****  ****    0 ROOT
