@<TRIPOS>MOLECULE
4FU
   22    22     1     0     0
SMALL
abcg2


@<TRIPOS>ATOM
      1 C7           0.6290     1.4810    -0.2310 c          1 4FU       0.738000
      2 O7          -0.1980     1.5790    -1.1590 o          1 4FU      -0.762750
      3 C8           0.4620     0.3340     0.7910 c6         1 4FU      -0.152200
      4 C9           1.7990    -0.3600     1.0700 c6         1 4FU      -0.047900
      5 C11          2.2560    -1.2090    -0.1120 c6         1 4FU      -0.065400
      6 C12          1.1900    -2.2300    -0.4940 c6         1 4FU      -0.065400
      7 C13         -0.1570    -1.5650    -0.7640 c6         1 4FU      -0.047900
      8 C14         -0.6020    -0.6990     0.4110 c6         1 4FU      -0.152200
      9 C15         -2.0070    -0.0920     0.2600 c          1 4FU       0.738000
     10 OAB         -2.3350     0.7810     1.0940 o          1 4FU      -0.762750
     11 O1           1.5870     2.2620    -0.0320 o          1 4FU      -0.762750
     12 H8           0.1360     0.8100     1.7220 hc         1 4FU       0.011700
     13 H9           2.5570     0.3830     1.3220 hc         1 4FU       0.021950
     14 HAI          1.6910    -1.0100     1.9460 hc         1 4FU       0.021950
     15 H112         2.4650    -0.5600    -0.9700 hc         1 4FU      -0.001300
     16 H111         3.1970    -1.7140     0.1260 hc         1 4FU      -0.001300
     17 HAG          1.5110    -2.8050    -1.3670 hc         1 4FU      -0.001300
     18 H12          1.0780    -2.9500     0.3260 hc         1 4FU      -0.001300
     19 HAL         -0.0900    -0.9490    -1.6650 hc         1 4FU       0.021950
     20 HAK         -0.9100    -2.3290    -0.9640 hc         1 4FU       0.021950
     21 H14         -0.6830    -1.3760     1.2790 hc         1 4FU       0.011700
     22 O2          -2.7560    -0.5590    -0.6250 o          1 4FU      -0.762750
@<TRIPOS>BOND
     1     1     2 1   
     2     1     3 1   
     3     1    11 1   
     4     3     4 1   
     5     3     8 1   
     6     3    12 1   
     7     4     5 1   
     8     4    13 1   
     9     4    14 1   
    10     5     6 1   
    11     5    15 1   
    12     5    16 1   
    13     6     7 1   
    14     6    17 1   
    15     6    18 1   
    16     7     8 1   
    17     7    19 1   
    18     7    20 1   
    19     8     9 1   
    20     8    21 1   
    21     9    10 1   
    22     9    22 1   
@<TRIPOS>SUBSTRUCTURE
     1 4FU         1 TEMP              0 ****  ****    0 ROOT
