@<TRIPOS>MOLECULE
4FU
   22    22     1     0     0
SMALL
No Charge or Current Charge


@<TRIPOS>ATOM
      1 C7           0.6120     1.5660    -0.3580 c          1 4FU       0.738000
      2 O7           0.8930     1.3130    -1.5210 o          1 4FU      -0.762750
      3 C8           0.5800     0.4190     0.7040 c6         1 4FU      -0.152200
      4 C9           1.9510    -0.3070     0.8700 c6         1 4FU      -0.047900
      5 C11          2.2310    -1.3520    -0.2430 c6         1 4FU      -0.065400
      6 C12          1.0660    -2.3630    -0.3840 c6         1 4FU      -0.065400
      7 C13         -0.2890    -1.6440    -0.6080 c6         1 4FU      -0.047900
      8 C14         -0.5800    -0.6260     0.5320 c6         1 4FU      -0.152200
      9 C15         -1.9920     0.0200     0.4290 c          1 4FU       0.738000
     10 OAB         -2.7750    -0.1690     1.3500 o          1 4FU      -0.762750
     11 O1           0.4370     2.7100     0.0440 o          1 4FU      -0.762750
     12 H8           0.3810     0.9190     1.6630 hc         1 4FU       0.011700
     13 H9           2.7640     0.4320     0.9020 hc         1 4FU       0.021950
     14 HAI          1.9690    -0.8180     1.8430 hc         1 4FU       0.021950
     15 H112         2.4050    -0.8500    -1.2030 hc         1 4FU      -0.001300
     16 H111         3.1580    -1.8930    -0.0120 hc         1 4FU      -0.001300
     17 HAG          1.2660    -3.0460    -1.2200 hc         1 4FU      -0.001300
     18 H12          1.0080    -2.9860     0.5190 hc         1 4FU      -0.001300
     19 HAL         -0.2880    -1.1410    -1.5830 hc         1 4FU       0.021950
     20 HAK         -1.0940    -2.3910    -0.6480 hc         1 4FU       0.021950
     21 H14         -0.5870    -1.2020     1.4700 hc         1 4FU       0.011700
     22 O2          -2.2950     0.6330    -0.5840 o          1 4FU      -0.762750
@<TRIPOS>BOND
     1     1     2 1   
     2     1     3 1   
     3     1    11 1   
     4     3     4 1   
     5     3     8 1   
     6     3    12 1   
     7     4     5 1   
     8     4    13 1   
     9     4    14 1   
    10     5     6 1   
    11     5    15 1   
    12     5    16 1   
    13     6     7 1   
    14     6    17 1   
    15     6    18 1   
    16     7     8 1   
    17     7    19 1   
    18     7    20 1   
    19     8     9 1   
    20     8    21 1   
    21     9    10 1   
    22     9    22 1   
@<TRIPOS>SUBSTRUCTURE
     1 4FU         1 TEMP              0 ****  ****    0 ROOT
