@<TRIPOS>MOLECULE
4FV
   27    28     1     0     0
SMALL
bcc


@<TRIPOS>ATOM
      1 C1          -1.9760    -0.2240     0.0750 cc         1 4FV       0.139500
      2 C           -3.3160     0.2870     0.0540 cc         1 4FV       0.513900
      3 C2          -0.7170     0.5460     0.2180 c          1 4FV       0.601600
      4 C4           2.2670     1.0350    -0.9190 c5         1 4FV      -0.092400
      5 C5           3.6050     0.3300    -1.1590 c5         1 4FV      -0.121400
      6 C7           2.7520    -0.5870     0.8620 c5         1 4FV      -0.091400
      7 C3           1.7120     0.4380     0.4050 c5         1 4FV       0.106700
      8 C6           4.0470    -0.0820     0.2440 c5         1 4FV       0.144100
      9 N2          -2.0370    -1.5060    -0.0730 nd         1 4FV      -0.308300
     10 N1          -4.1170    -0.7290    -0.1090 nd         1 4FV      -0.438300
     11 N           -3.7190     1.5610     0.2300 nv         1 4FV      -0.922500
     12 N3           0.4030    -0.1720     0.2850 ns         1 4FV      -0.542900
     13 O1          -0.7660     1.7680     0.2720 o          1 4FV      -0.610100
     14 O           -3.3140    -1.8250    -0.1820 os         1 4FV       0.119600
     15 O2           5.0390    -1.0760     0.2970 oh         1 4FV      -0.588800
     16 H5           1.5700     0.8920    -1.7450 hc         1 4FV       0.057700
     17 H8           3.4660    -0.5720    -1.7620 hc         1 4FV       0.053700
     18 H7           4.3330     0.9610    -1.6710 hc         1 4FV       0.053700
     19 H11          2.7920    -0.6870     1.9470 hc         1 4FV       0.064200
     20 H10          2.5280    -1.5730     0.4410 hc         1 4FV       0.064200
     21 H            1.6340     1.2320     1.1490 h1         1 4FV       0.075700
     22 H1           4.3700     0.8190     0.7890 h1         1 4FV       0.033700
     23 H3          -3.0350     2.2760     0.0510 hn         1 4FV       0.440800
     24 H2          -4.6610     1.7880    -0.0420 hn         1 4FV       0.440800
     25 H4           0.3490    -1.1750     0.1880 hn         1 4FV       0.337500
     26 H9           5.8500    -0.7130    -0.0710 ho         1 4FV       0.408000
     27 H6           2.4090     2.1100    -0.8050 hc         1 4FV       0.057700
@<TRIPOS>BOND
     1     1     2 1   
     2     1     3 1   
     3     1     9 2   
     4     2    10 2   
     5     2    11 1   
     6     3    12 1   
     7     3    13 2   
     8     4     5 1   
     9     4     7 1   
    10     4    16 1   
    11     4    27 1   
    12     5     8 1   
    13     5    17 1   
    14     5    18 1   
    15     6     7 1   
    16     6     8 1   
    17     6    19 1   
    18     6    20 1   
    19     7    12 1   
    20     7    21 1   
    21     8    15 1   
    22     8    22 1   
    23     9    14 1   
    24    10    14 1   
    25    11    23 1   
    26    11    24 1   
    27    12    25 1   
    28    15    26 1   
@<TRIPOS>SUBSTRUCTURE
     1 4FV         1 TEMP              0 ****  ****    0 ROOT
