@<TRIPOS>MOLECULE
4FV
   27    28     1     0     0
SMALL
No Charge or Current Charge


@<TRIPOS>ATOM
      1 C1          -2.0060    -0.2390     0.1470 cc         1 4FV       0.139500
      2 C           -3.2810     0.3610     0.1190 cc         1 4FV       0.513900
      3 C2          -0.7400     0.5380     0.2620 c          1 4FV       0.534600
      4 C4           2.1350     0.7090    -1.0920 c5         1 4FV      -0.092400
      5 C5           3.6930     0.5500    -1.0620 c5         1 4FV      -0.121400
      6 C7           2.7010    -0.7520     0.7210 c5         1 4FV      -0.091400
      7 C3           1.7100     0.3780     0.3660 c5         1 4FV       0.106700
      8 C6           4.0170    -0.0290     0.3520 c5         1 4FV       0.167300
      9 N2          -2.1080    -1.5510     0.0480 nd         1 4FV      -0.308300
     10 N1          -4.2480    -0.4980    -0.0030 nd         1 4FV      -0.438300
     11 N           -3.5620     1.6880     0.2080 nv         1 4FV      -1.032900
     12 N3           0.3930    -0.2630     0.2820 ns         1 4FV      -0.475900
     13 O1          -0.6730     1.7630     0.3290 o          1 4FV      -0.610100
     14 O           -3.5300    -1.7410    -0.0500 os         1 4FV       0.119600
     15 O2           5.1250    -0.9220     0.3240 oh         1 4FV      -0.651000
     16 H5           1.6990     0.0120    -1.8190 hc         1 4FV       0.057700
     17 H8           4.0220    -0.1240    -1.8620 hc         1 4FV       0.053700
     18 H7           4.2040     1.5060    -1.2230 hc         1 4FV       0.053700
     19 H11          2.6580    -1.0320     1.7800 hc         1 4FV       0.064200
     20 H10          2.5520    -1.6590     0.1220 hc         1 4FV       0.064200
     21 H            1.7700     1.2360     1.0520 h1         1 4FV       0.075700
     22 H1           4.2080     0.7880     1.0630 h1         1 4FV       0.033700
     23 H3          -2.7800     2.3370     0.1250 hn         1 4FV       0.496000
     24 H2          -4.4730     2.0070    -0.1090 hn         1 4FV       0.496000
     25 H4           0.2500    -1.2660     0.2240 hn         1 4FV       0.337500
     26 H9           5.9070    -0.3930     0.0520 ho         1 4FV       0.447000
     27 H6           1.8230     1.7170    -1.3900 hc         1 4FV       0.057700
@<TRIPOS>BOND
     1     1     2 1   
     2     1     3 1   
     3     1     9 2   
     4     2    10 2   
     5     2    11 1   
     6     3    12 1   
     7     3    13 2   
     8     4     5 1   
     9     4     7 1   
    10     4    16 1   
    11     4    27 1   
    12     5     8 1   
    13     5    17 1   
    14     5    18 1   
    15     6     7 1   
    16     6     8 1   
    17     6    19 1   
    18     6    20 1   
    19     7    12 1   
    20     7    21 1   
    21     8    15 1   
    22     8    22 1   
    23     9    14 1   
    24    10    14 1   
    25    11    23 1   
    26    11    24 1   
    27    12    25 1   
    28    15    26 1   
@<TRIPOS>SUBSTRUCTURE
     1 4FV         1 TEMP              0 ****  ****    0 ROOT
