@<TRIPOS>MOLECULE
4FX
   34    35     1     0     0
SMALL
No Charge or Current Charge


@<TRIPOS>ATOM
      1 C6           4.4690     1.9060     0.6620 ca         1 4FX      -0.152000
      2 C5           5.2740     0.7690     0.8150 ca         1 4FX      -0.058000
      3 C13         -3.1260     0.4320    -1.1990 ca         1 4FX       0.023000
      4 C7           3.1860     1.7900     0.1030 ca         1 4FX      -0.059000
      5 C4           4.7970    -0.4890     0.4090 ca         1 4FX      -0.204000
      6 C12         -1.7310     0.5630    -1.1960 ca         1 4FX      -0.256000
      7 C15         -2.9740    -0.0380     1.1670 ca         1 4FX       0.423900
      8 C14         -3.7670     0.1220     0.0170 ca         1 4FX      -0.285600
      9 C8           2.6970     0.5340    -0.3080 ca         1 4FX      -0.156300
     10 C3           3.5070    -0.6150    -0.1550 ca         1 4FX       0.164100
     11 C11         -1.0480     0.3770     0.0080 ca         1 4FX       0.644900
     12 C9           1.3020     0.4460    -0.9150 c3         1 4FX       0.293100
     13 N16         -1.6290     0.0880     1.1660 nb         1 4FX      -0.771000
     14 N18         -5.8330    -0.3250     1.2530 nt         1 4FX      -0.607000
     15 N10          0.2990     0.4820     0.1480 nu         1 4FX      -0.922100
     16 O19         -5.9590     0.1080    -0.9140 o          1 4FX      -0.619100
     17 O2           3.0090    -1.8380    -0.5630 os         1 4FX      -0.335100
     18 H1           4.8380     2.8800     0.9770 ha         1 4FX       0.120000
     19 H2           6.2690     0.8600     1.2490 ha         1 4FX       0.114000
     20 H3          -3.6900     0.5700    -2.1210 ha         1 4FX       0.136000
     21 H4           2.5680     2.6790    -0.0100 ha         1 4FX       0.116000
     22 H5           5.4440    -1.3510     0.5400 ha         1 4FX       0.120000
     23 H6          -1.1980     0.8050    -2.1090 ha         1 4FX       0.125000
     24 H7          -3.4150    -0.2760     2.1340 h4         1 4FX       0.007100
     25 H8           3.1740    -3.9050    -0.8220 h1         1 4FX       0.043033
     26 H9           4.6920    -3.0040    -1.0150 h1         1 4FX       0.043033
     27 H10          4.0030    -3.2630     0.6110 h1         1 4FX       0.043033
     28 H11          1.1550     1.2930    -1.5990 h1         1 4FX       0.050200
     29 H12          1.1950    -0.4730    -1.5070 h1         1 4FX       0.050200
     30 H13         -5.2750    -0.4430     2.0840 hn         1 4FX       0.310500
     31 H14         -6.8360    -0.4270     1.2930 hn         1 4FX       0.310500
     32 H15          0.6020     0.2380     1.0850 hn         1 4FX       0.504000
     33 C17         -5.2550    -0.0280     0.0710 c          1 4FX       0.633700
     34 C1           3.7590    -3.0590    -0.4390 c3         1 4FX       0.146900
@<TRIPOS>BOND
     1     1     2 ar  
     2     1     4 ar  
     3     1    18 1   
     4     2     5 ar  
     5     2    19 1   
     6     3     6 ar  
     7     3     8 ar  
     8     3    20 1   
     9     4     9 ar  
    10     4    21 1   
    11     5    10 ar  
    12     5    22 1   
    13     6    11 ar  
    14     6    23 1   
    15     7     8 ar  
    16     7    13 ar  
    17     7    24 1   
    18     8    33 1   
    19     9    10 ar  
    20     9    12 1   
    21    10    17 1   
    22    11    13 ar  
    23    11    15 1   
    24    12    15 1   
    25    12    28 1   
    26    12    29 1   
    27    14    30 1   
    28    14    31 1   
    29    14    33 1   
    30    15    32 1   
    31    16    33 2   
    32    17    34 1   
    33    25    34 1   
    34    26    34 1   
    35    27    34 1   
@<TRIPOS>SUBSTRUCTURE
     1 4FX         1 TEMP              0 ****  ****    0 ROOT
