@<TRIPOS>MOLECULE
4FX
   34    35     1     0     0
SMALL
abcg2


@<TRIPOS>ATOM
      1 C6           4.7880     1.8330     0.4150 ca         1 4FX      -0.152000
      2 C5           5.3660     0.5890     0.6020 ca         1 4FX      -0.058000
      3 C13         -2.9150     0.1800    -1.1380 ca         1 4FX       0.023000
      4 C7           3.4750     1.9050    -0.0360 ca         1 4FX      -0.059000
      5 C4           4.6490    -0.5740     0.3420 ca         1 4FX      -0.204000
      6 C12         -1.5600     0.3900    -1.0910 ca         1 4FX      -0.256000
      7 C15         -2.9170    -0.0190     1.2220 ca         1 4FX       0.423900
      8 C14         -3.6420    -0.0500     0.0350 ca         1 4FX      -0.285600
      9 C8           2.7360     0.7620    -0.3040 ca         1 4FX      -0.156300
     10 C3           3.3340    -0.4930    -0.1080 ca         1 4FX       0.164100
     11 C11         -0.9220     0.3730     0.1680 ca         1 4FX       0.644900
     12 C9           1.3120     0.8670    -0.7700 c3         1 4FX       0.293100
     13 N16         -1.6150     0.1830     1.2990 nb         1 4FX      -0.771000
     14 N18         -5.7230    -0.7190     1.0560 nt         1 4FX      -0.607000
     15 N10          0.4050     0.5410     0.3090 nu         1 4FX      -0.922100
     16 O19         -5.7220    -0.0200    -1.0820 o          1 4FX      -0.619100
     17 O2           2.5670    -1.5630    -0.3830 os         1 4FX      -0.335100
     18 H1           5.3460     2.7370     0.6170 ha         1 4FX       0.120000
     19 H2           6.3860     0.5090     0.9540 ha         1 4FX       0.114000
     20 H3          -3.4220     0.1930    -2.0940 ha         1 4FX       0.136000
     21 H4           3.0110     2.8720    -0.1890 ha         1 4FX       0.116000
     22 H5           5.1290    -1.5300     0.4980 ha         1 4FX       0.120000
     23 H6          -1.0030     0.5720    -1.9990 ha         1 4FX       0.125000
     24 H7          -3.4100    -0.1470     2.1810 h4         1 4FX       0.007100
     25 H8           2.3440    -3.5570    -0.5340 h1         1 4FX       0.043033
     26 H9           3.9840    -2.9990    -0.9140 h1         1 4FX       0.043033
     27 H10          3.4330    -3.0670     0.7750 h1         1 4FX       0.043033
     28 H11          1.1290     1.8810    -1.1430 h1         1 4FX       0.050200
     29 H12          1.1370     0.1870    -1.6070 h1         1 4FX       0.050200
     30 H13         -5.2260    -1.0620     1.8580 hn         1 4FX       0.310500
     31 H14         -6.7140    -0.8960     1.0300 hn         1 4FX       0.310500
     32 H15          0.7400     0.6450     1.2540 hn         1 4FX       0.504000
     33 C17         -5.1070    -0.2620    -0.0480 c          1 4FX       0.633700
     34 C1           3.1260    -2.8560    -0.2520 c3         1 4FX       0.146900
@<TRIPOS>BOND
     1     1     2 ar  
     2     1     4 ar  
     3     1    18 1   
     4     2     5 ar  
     5     2    19 1   
     6     3     6 ar  
     7     3     8 ar  
     8     3    20 1   
     9     4     9 ar  
    10     4    21 1   
    11     5    10 ar  
    12     5    22 1   
    13     6    11 ar  
    14     6    23 1   
    15     7     8 ar  
    16     7    13 ar  
    17     7    24 1   
    18     8    33 1   
    19     9    10 ar  
    20     9    12 1   
    21    10    17 1   
    22    11    13 ar  
    23    11    15 1   
    24    12    15 1   
    25    12    28 1   
    26    12    29 1   
    27    14    30 1   
    28    14    31 1   
    29    14    33 1   
    30    15    32 1   
    31    16    33 2   
    32    17    34 1   
    33    25    34 1   
    34    26    34 1   
    35    27    34 1   
@<TRIPOS>SUBSTRUCTURE
     1 4FX         1 TEMP              0 ****  ****    0 ROOT
