@<TRIPOS>MOLECULE
4FY
   36    38     1     0     0
SMALL
No Charge or Current Charge


@<TRIPOS>ATOM
      1 C13         -3.9140     1.3850    -1.5330 ca         1 4FY      -0.103500
      2 C14         -5.2880     1.6530    -1.6620 ca         1 4FY      -0.116500
      3 C2           3.6270     1.2210     1.9750 c6         1 4FY       0.127100
      4 C15         -6.2020     1.0930    -0.7570 ca         1 4FY      -0.130000
      5 C16         -5.7410     0.2640     0.2770 ca         1 4FY      -0.116500
      6 C17         -4.3680    -0.0060     0.4080 ca         1 4FY      -0.103500
      7 C12         -3.4330     0.5510    -0.4960 ca         1 4FY      -0.076500
      8 C9          -1.9900     0.2770    -0.3690 cc         1 4FY       0.384000
      9 N10         -1.0440     0.7560    -1.1570 nd         1 4FY      -0.665000
     10 N8          -1.4350    -0.5260     0.5890 na         1 4FY      -0.259500
     11 C7          -0.0750    -0.6310     0.3470 cc         1 4FY      -0.180600
     12 C20          0.8700    -1.5990     0.9710 c          1 4FY       0.735600
     13 O22          1.9690    -1.7940     0.4830 o          1 4FY      -0.704000
     14 O21          0.4460    -2.2580     1.9090 o          1 4FY      -0.704000
     15 C11          0.1800     0.2770    -0.6790 cd         1 4FY       0.168500
     16 C18          1.5440     0.6490    -1.2530 c          1 4FY       0.589600
     17 O19          1.7010     0.8870    -2.4500 o          1 4FY      -0.613100
     18 N3           2.6300     0.8330    -0.3540 n          1 4FY      -0.395800
     19 C1           2.4030     1.3650     1.0320 c6         1 4FY       0.073000
     20 C5           3.9960     1.1080    -0.9020 c6         1 4FY       0.073000
     21 C6           5.1400     0.9830     0.1380 c6         1 4FY       0.127100
     22 O4           4.8180     1.7180     1.3350 os         1 4FY      -0.469000
     23 H11C         1.5450     0.8860     1.5150 h1         1 4FY       0.053450
     24 H12C         2.1550     2.4330     0.9500 h1         1 4FY       0.053450
     25 H61C         5.2970    -0.0750     0.3950 h1         1 4FY       0.058450
     26 H62C         6.0760     1.3720    -0.2860 h1         1 4FY       0.058450
     27 H51C         4.2020     0.4150    -1.7300 h1         1 4FY       0.053450
     28 H52C         4.0080     2.1250    -1.3200 h1         1 4FY       0.053450
     29 H8          -1.9510    -1.0410     1.2910 hn         1 4FY       0.364000
     30 H13         -3.2210     1.8290    -2.2440 ha         1 4FY       0.123500
     31 H17         -4.0420    -0.6510     1.2200 ha         1 4FY       0.123500
     32 H14         -5.6420     2.2960    -2.4640 ha         1 4FY       0.101500
     33 H15         -7.2650     1.3000    -0.8570 ha         1 4FY       0.099000
     34 H16         -6.4490    -0.1710     0.9790 ha         1 4FY       0.101500
     35 H21C         3.4520     1.7850     2.9020 h1         1 4FY       0.058450
     36 H22C         3.7710     0.1640     2.2410 h1         1 4FY       0.058450
@<TRIPOS>BOND
     1     1     2 ar  
     2     1     7 ar  
     3     1    30 1   
     4     2     4 ar  
     5     2    32 1   
     6     3    19 1   
     7     3    22 1   
     8     3    35 1   
     9     3    36 1   
    10     4     5 ar  
    11     4    33 1   
    12     5     6 ar  
    13     5    34 1   
    14     6     7 ar  
    15     6    31 1   
    16     7     8 1   
    17     8     9 2   
    18     8    10 1   
    19     9    15 1   
    20    10    11 1   
    21    10    29 1   
    22    11    12 1   
    23    11    15 2   
    24    12    13 1   
    25    12    14 1   
    26    15    16 1   
    27    16    17 2   
    28    16    18 1   
    29    18    19 1   
    30    18    20 1   
    31    19    23 1   
    32    19    24 1   
    33    20    21 1   
    34    20    27 1   
    35    20    28 1   
    36    21    22 1   
    37    21    25 1   
    38    21    26 1   
@<TRIPOS>SUBSTRUCTURE
     1 4FY         1 TEMP              0 ****  ****    0 ROOT
