@<TRIPOS>MOLECULE
4FY
   36    38     1     0     0
SMALL
abcg2


@<TRIPOS>ATOM
      1 C13         -3.5270     1.5370    -1.2660 ca         1 4FY      -0.103500
      2 C14         -4.8410     1.9610    -1.3810 ca         1 4FY      -0.116500
      3 C2           3.2130     1.3320     1.7790 c6         1 4FY       0.127100
      4 C15         -5.8430     1.3480    -0.6390 ca         1 4FY      -0.130000
      5 C16         -5.5180     0.3060     0.2180 ca         1 4FY      -0.116500
      6 C17         -4.2040    -0.1210     0.3350 ca         1 4FY      -0.103500
      7 C12         -3.1910     0.4910    -0.4050 ca         1 4FY      -0.076500
      8 C9          -1.7960     0.0730    -0.2980 cc         1 4FY       0.384000
      9 N10         -0.7930     0.6200    -0.9570 nd         1 4FY      -0.665000
     10 N8          -1.3520    -0.9210     0.4980 na         1 4FY      -0.259500
     11 C7          -0.0000    -1.0240     0.3530 cc         1 4FY      -0.180600
     12 C20          0.8400    -2.0160     1.0920 c          1 4FY       0.735600
     13 O22          2.0580    -1.9710     0.8430 o          1 4FY      -0.704000
     14 O21          0.2340    -2.7760     1.8710 o          1 4FY      -0.704000
     15 C11          0.3190    -0.0500    -0.5570 cd         1 4FY       0.168500
     16 C18          1.6520     0.2450    -1.1560 c          1 4FY       0.589600
     17 O19          1.9660    -0.2730    -2.2210 o          1 4FY      -0.613100
     18 N3           2.4270     1.1340    -0.5100 n          1 4FY      -0.395800
     19 C1           2.1320     1.7200     0.7840 c6         1 4FY       0.073000
     20 C5           3.7600     1.4610    -0.9840 c6         1 4FY       0.073000
     21 C6           4.7830     1.0810     0.0740 c6         1 4FY       0.127100
     22 O4           4.4970     1.6930     1.3130 os         1 4FY      -0.469000
     23 H11C         1.1640     1.3880     1.1490 h1         1 4FY       0.053450
     24 H12C         2.0910     2.8090     0.6800 h1         1 4FY       0.053450
     25 H61C         4.8080    -0.0120     0.1780 h1         1 4FY       0.058450
     26 H62C         5.7750     1.4150    -0.2330 h1         1 4FY       0.058450
     27 H51C         3.9670     0.9340    -1.9120 h1         1 4FY       0.053450
     28 H52C         3.8130     2.5350    -1.1880 h1         1 4FY       0.053450
     29 H8          -1.8920    -1.5110     1.1120 hn         1 4FY       0.364000
     30 H13         -2.7510     2.0180    -1.8470 ha         1 4FY       0.123500
     31 H17         -3.9870    -0.9380     1.0130 ha         1 4FY       0.123500
     32 H14         -5.0820     2.7750    -2.0520 ha         1 4FY       0.101500
     33 H15         -6.8690     1.6810    -0.7280 ha         1 4FY       0.099000
     34 H16         -6.2890    -0.1790     0.8020 ha         1 4FY       0.101500
     35 H21C         3.0500     1.8530     2.7240 h1         1 4FY       0.058450
     36 H22C         3.1550     0.2520     1.9600 h1         1 4FY       0.058450
@<TRIPOS>BOND
     1     1     2 ar  
     2     1     7 ar  
     3     1    30 1   
     4     2     4 ar  
     5     2    32 1   
     6     3    19 1   
     7     3    22 1   
     8     3    35 1   
     9     3    36 1   
    10     4     5 ar  
    11     4    33 1   
    12     5     6 ar  
    13     5    34 1   
    14     6     7 ar  
    15     6    31 1   
    16     7     8 1   
    17     8     9 2   
    18     8    10 1   
    19     9    15 1   
    20    10    11 1   
    21    10    29 1   
    22    11    12 1   
    23    11    15 2   
    24    12    13 1   
    25    12    14 1   
    26    15    16 1   
    27    16    17 2   
    28    16    18 1   
    29    18    19 1   
    30    18    20 1   
    31    19    23 1   
    32    19    24 1   
    33    20    21 1   
    34    20    27 1   
    35    20    28 1   
    36    21    22 1   
    37    21    25 1   
    38    21    26 1   
@<TRIPOS>SUBSTRUCTURE
     1 4FY         1 TEMP              0 ****  ****    0 ROOT
