@<TRIPOS>MOLECULE
4FZ
   19    19     1     0     0
SMALL
abcg2


@<TRIPOS>ATOM
      1 O            3.9680    -0.5680    -0.1400 o          1 4FZ      -0.511100
      2 N1          -3.0630    -1.1920     0.3900 nv         1 4FZ      -1.033200
      3 C2          -1.0470     0.0360    -0.0580 ca         1 4FZ      -0.169900
      4 N2          -3.2840     0.8580    -0.6220 n2         1 4FZ      -0.840100
      5 C3          -0.4310     1.2550     0.2130 ca         1 4FZ      -0.103500
      6 C4           0.9500     1.3410     0.2530 ca         1 4FZ      -0.063000
      7 C5           1.7310     0.2150     0.0110 ca         1 4FZ      -0.189600
      8 C6           3.1970     0.3410     0.0600 c          1 4FZ       0.582500
      9 C7           1.1180    -1.0060    -0.2680 ca         1 4FZ      -0.063000
     10 C8          -0.2610    -1.0950    -0.2940 ca         1 4FZ      -0.103500
     11 HN1         -2.5630    -1.6710     1.1200 hn         1 4FZ       0.472000
     12 HN1A        -4.0660    -1.2240     0.4810 hn         1 4FZ       0.472000
     13 HN2         -2.7300     1.5940    -1.0420 hn         1 4FZ       0.390400
     14 H3          -1.0290     2.1340     0.4150 ha         1 4FZ       0.127500
     15 H4           1.4240     2.2890     0.4780 ha         1 4FZ       0.127500
     16 H6           3.5620     1.3550     0.2990 h4         1 4FZ      -0.008800
     17 H7           1.7180    -1.8840    -0.4650 ha         1 4FZ       0.127500
     18 H8          -0.7300    -2.0440    -0.5180 ha         1 4FZ       0.127500
     19 C1          -2.5360    -0.0430    -0.1120 ce         1 4FZ       0.658800
@<TRIPOS>BOND
     1     1     8 2   
     2     2    11 1   
     3     2    12 1   
     4     2    19 1   
     5     3     5 ar  
     6     3    10 ar  
     7     3    19 1   
     8     4    13 1   
     9     4    19 2   
    10     5     6 ar  
    11     5    14 1   
    12     6     7 ar  
    13     6    15 1   
    14     7     8 1   
    15     7     9 ar  
    16     8    16 1   
    17     9    10 ar  
    18     9    17 1   
    19    10    18 1   
@<TRIPOS>SUBSTRUCTURE
     1 4FZ         1 TEMP              0 ****  ****    0 ROOT
