@<TRIPOS>MOLECULE
4FZ
   19    19     1     0     0
SMALL
No Charge or Current Charge


@<TRIPOS>ATOM
      1 O            4.0240    -0.5930    -0.0790 o          1 4FZ      -0.511100
      2 N1          -3.1470    -1.2360     0.2490 nv         1 4FZ      -1.033200
      3 C2          -1.0780     0.0180    -0.0570 ca         1 4FZ      -0.169900
      4 N2          -3.3250     0.8920    -0.4300 n2         1 4FZ      -0.840100
      5 C3          -0.4480     1.2690     0.1460 ca         1 4FZ      -0.103500
      6 C4           0.9540     1.3720     0.1900 ca         1 4FZ      -0.063000
      7 C5           1.7590     0.2300     0.0170 ca         1 4FZ      -0.189600
      8 C6           3.2600     0.3570     0.0650 c          1 4FZ       0.582500
      9 C7           1.1420    -1.0170    -0.2070 ca         1 4FZ      -0.063000
     10 C8          -0.2600    -1.1200    -0.2490 ca         1 4FZ      -0.103500
     11 HN1         -2.5920    -1.8010     0.8800 hn         1 4FZ       0.472000
     12 HN1A        -4.1290    -1.1480     0.4810 hn         1 4FZ       0.472000
     13 HN2         -2.7280     1.6630    -0.7560 hn         1 4FZ       0.390400
     14 H3          -1.0400     2.1700     0.2900 ha         1 4FZ       0.127500
     15 H4           1.4110     2.3450     0.3590 ha         1 4FZ       0.127500
     16 H6           3.6550     1.3810     0.2430 h4         1 4FZ      -0.008800
     17 H7           1.7450    -1.9110    -0.3540 ha         1 4FZ       0.127500
     18 H8          -0.7050    -2.0940    -0.4450 ha         1 4FZ       0.127500
     19 C1          -2.5700    -0.0860    -0.1430 ce         1 4FZ       0.658800
@<TRIPOS>BOND
     1     1     8 2   
     2     2    11 1   
     3     2    12 1   
     4     2    19 1   
     5     3     5 ar  
     6     3    10 ar  
     7     3    19 1   
     8     4    13 1   
     9     4    19 2   
    10     5     6 ar  
    11     5    14 1   
    12     6     7 ar  
    13     6    15 1   
    14     7     8 1   
    15     7     9 ar  
    16     8    16 1   
    17     9    10 ar  
    18     9    17 1   
    19    10    18 1   
@<TRIPOS>SUBSTRUCTURE
     1 4FZ         1 TEMP              0 ****  ****    0 ROOT
