@<TRIPOS>MOLECULE
4G0
   38    39     1     0     0
SMALL
No Charge or Current Charge


@<TRIPOS>ATOM
      1 C4           3.9150     2.2350    -0.4990 ca         1 4G0      -0.069000
      2 C10         -3.7390     0.3930     1.2400 ca         1 4G0       0.022000
      3 C5           2.6110     2.1870     0.0170 ca         1 4G0      -0.151000
      4 C3           4.7010     1.0710    -0.5340 ca         1 4G0      -0.180000
      5 C9          -2.3620     0.6480     1.2600 ca         1 4G0      -0.256000
      6 C14          2.8810    -0.1880     0.4590 ca         1 4G0      -0.173000
      7 C12         -3.4450    -0.3990    -1.0250 ca         1 4G0       0.423900
      8 C11         -4.2980    -0.1460     0.0650 ca         1 4G0      -0.283600
      9 C6           2.0860     0.9750     0.5020 ca         1 4G0      -0.074300
     10 C2           4.1940    -0.1550    -0.0570 ca         1 4G0       0.334000
     11 C8          -1.6140     0.3540     0.1170 ca         1 4G0       0.640900
     12 C7           0.6710     0.9190     1.0640 c3         1 4G0       0.277100
     13 N2          -2.1170    -0.1520    -1.0020 nb         1 4G0      -0.767000
     14 N3          -6.2630    -0.9540    -1.1540 nt         1 4G0      -0.605000
     15 N1          -0.2740     0.5580     0.0060 nu         1 4G0      -0.929100
     16 N            4.9880    -1.3310    -0.0950 nh         1 4G0      -0.827400
     17 O           -6.5180    -0.2260     0.9220 o          1 4G0      -0.615100
     18 H1           4.3170     3.1740    -0.8750 ha         1 4G0       0.111000
     19 H2          -4.3520     0.6100     2.1140 ha         1 4G0       0.137000
     20 H3           2.0070     3.0920     0.0390 ha         1 4G0       0.115000
     21 H4           5.7030     1.1270    -0.9470 ha         1 4G0       0.113000
     22 H5          -1.8910     1.0660     2.1430 ha         1 4G0       0.125000
     23 H6           2.4720    -1.1180     0.8410 ha         1 4G0       0.117000
     24 H7          -3.8220    -0.8140    -1.9580 h4         1 4G0       0.009100
     25 H8           6.7920    -0.4580     0.6350 h1         1 4G0       0.035867
     26 H9           6.8810    -2.2070     0.3660 h1         1 4G0       0.035867
     27 H10          6.8900    -1.0970    -1.0290 h1         1 4G0       0.035867
     28 H11          4.0880    -3.0510     0.7870 h1         1 4G0       0.035867
     29 H12          3.4810    -2.6430    -0.8430 h1         1 4G0       0.035867
     30 H13          5.0770    -3.3900    -0.6570 h1         1 4G0       0.035867
     31 H14          0.6300     0.1780     1.8750 h1         1 4G0       0.047700
     32 H15          0.4060     1.8960     1.4920 h1         1 4G0       0.047700
     33 H16         -5.6620    -1.1400    -1.9410 hn         1 4G0       0.309500
     34 H17         -7.2510    -1.1520    -1.2080 hn         1 4G0       0.309500
     35 H18          0.0990     0.2460    -0.8840 hn         1 4G0       0.508000
     36 C13         -5.7640    -0.4380    -0.0120 c          1 4G0       0.632700
     37 C            6.4680    -1.2690    -0.0300 c3         1 4G0       0.216600
     38 C1           4.3750    -2.6760    -0.2050 c3         1 4G0       0.216600
@<TRIPOS>BOND
     1     1     3 ar  
     2     1     4 ar  
     3     1    18 1   
     4     2     5 ar  
     5     2     8 ar  
     6     2    19 1   
     7     3     9 ar  
     8     3    20 1   
     9     4    10 ar  
    10     4    21 1   
    11     5    11 ar  
    12     5    22 1   
    13     6     9 ar  
    14     6    10 ar  
    15     6    23 1   
    16     7     8 ar  
    17     7    13 ar  
    18     7    24 1   
    19     8    36 1   
    20     9    12 1   
    21    10    16 1   
    22    11    13 ar  
    23    11    15 1   
    24    12    15 1   
    25    12    31 1   
    26    12    32 1   
    27    14    33 1   
    28    14    34 1   
    29    14    36 1   
    30    15    35 1   
    31    16    37 1   
    32    16    38 1   
    33    17    36 2   
    34    25    37 1   
    35    26    37 1   
    36    27    37 1   
    37    28    38 1   
    38    29    38 1   
    39    30    38 1   
@<TRIPOS>SUBSTRUCTURE
     1 4G0         1 TEMP              0 ****  ****    0 ROOT
