@<TRIPOS>MOLECULE
4G0
   38    39     1     0     0
SMALL
bcc


@<TRIPOS>ATOM
      1 C4           4.0710     2.2570    -0.1980 ca         1 4G0      -0.087000
      2 C10         -3.5260     0.1290     1.1570 ca         1 4G0       0.004000
      3 C5           2.7430     2.2920     0.2090 ca         1 4G0      -0.169000
      4 C3           4.7520     1.0600    -0.3290 ca         1 4G0      -0.198000
      5 C9          -2.1870     0.4310     1.1480 ca         1 4G0      -0.339300
      6 C14          2.7720    -0.1130     0.3640 ca         1 4G0      -0.191000
      7 C12         -3.4100    -0.2250    -1.1820 ca         1 4G0       0.489200
      8 C11         -4.1820    -0.2310    -0.0250 ca         1 4G0      -0.348900
      9 C6           2.0990     1.0950     0.4930 ca         1 4G0      -0.074300
     10 C2           4.1130    -0.1660    -0.0560 ca         1 4G0       0.195600
     11 C8          -1.4960     0.3770    -0.0810 ca         1 4G0       0.706200
     12 C7           0.6530     1.0870     0.9140 c3         1 4G0       0.277100
     13 N2          -2.1230     0.0660    -1.2220 nb         1 4G0      -0.767000
     14 N3          -6.1550    -1.1440    -1.0690 nt         1 4G0      -0.672000
     15 N1          -0.1760     0.6260    -0.1780 nu         1 4G0      -0.873900
     16 N            4.7700    -1.3590    -0.1940 nh         1 4G0      -0.689000
     17 O           -6.3130    -0.2530     0.9910 o          1 4G0      -0.615100
     18 H1           4.5920     3.1810    -0.4140 ha         1 4G0       0.129000
     19 H2          -4.0740     0.1680     2.0890 ha         1 4G0       0.155000
     20 H3           2.2210     3.2350     0.3120 ha         1 4G0       0.133000
     21 H4           5.7880     1.0860    -0.6370 ha         1 4G0       0.131000
     22 H5          -1.6840     0.7110     2.0630 ha         1 4G0       0.143000
     23 H6           2.2400    -1.0240     0.6020 ha         1 4G0       0.135000
     24 H7          -3.8530    -0.4480    -2.1480 h4         1 4G0       0.009100
     25 H8           6.7760    -0.8760     0.3180 h1         1 4G0       0.035867
     26 H9           6.5340    -2.3910    -0.5510 h1         1 4G0       0.035867
     27 H10          6.4180    -0.8690    -1.4130 h1         1 4G0       0.035867
     28 H11          3.9220    -2.5550     1.3430 h1         1 4G0       0.035867
     29 H12          3.2110    -2.7780    -0.2590 h1         1 4G0       0.035867
     30 H13          4.8090    -3.4140     0.0840 h1         1 4G0       0.035867
     31 H14          0.5240     0.4200     1.7710 h1         1 4G0       0.047700
     32 H15          0.3540     2.0890     1.2410 h1         1 4G0       0.047700
     33 H16         -5.5890    -1.5440    -1.7960 hn         1 4G0       0.309500
     34 H17         -7.1270    -1.4080    -1.0610 hn         1 4G0       0.309500
     35 H18          0.1940     0.6950    -1.1130 hn         1 4G0       0.452800
     36 C13         -5.6320    -0.5430     0.0150 c          1 4G0       0.699700
     37 C            6.1880    -1.3640    -0.4670 c3         1 4G0       0.216600
     38 C1           4.1450    -2.5750     0.2700 c3         1 4G0       0.216600
@<TRIPOS>BOND
     1     1     3 ar  
     2     1     4 ar  
     3     1    18 1   
     4     2     5 ar  
     5     2     8 ar  
     6     2    19 1   
     7     3     9 ar  
     8     3    20 1   
     9     4    10 ar  
    10     4    21 1   
    11     5    11 ar  
    12     5    22 1   
    13     6     9 ar  
    14     6    10 ar  
    15     6    23 1   
    16     7     8 ar  
    17     7    13 ar  
    18     7    24 1   
    19     8    36 1   
    20     9    12 1   
    21    10    16 1   
    22    11    13 ar  
    23    11    15 1   
    24    12    15 1   
    25    12    31 1   
    26    12    32 1   
    27    14    33 1   
    28    14    34 1   
    29    14    36 1   
    30    15    35 1   
    31    16    37 1   
    32    16    38 1   
    33    17    36 2   
    34    25    37 1   
    35    26    37 1   
    36    27    37 1   
    37    28    38 1   
    38    29    38 1   
    39    30    38 1   
@<TRIPOS>SUBSTRUCTURE
     1 4G0         1 TEMP              0 ****  ****    0 ROOT
