@<TRIPOS>MOLECULE
4G2
   24    25     1     0     0
SMALL
No Charge or Current Charge


@<TRIPOS>ATOM
      1 O14         -4.7480     0.9440    -0.0520 o          1 4G2      -0.715000
      2 C12         -3.5760     1.3040    -0.0600 c          1 4G2       0.630500
      3 O13         -3.2860     2.4960    -0.0910 o          1 4G2      -0.715000
      4 C10         -2.4520     0.2680    -0.0320 cc         1 4G2       0.221500
      5 C9          -2.6410    -1.1020     0.0030 cd         1 4G2      -0.174300
      6 N8          -1.3680    -1.6450     0.0180 na         1 4G2      -0.311500
      7 C7          -0.4600    -0.6050    -0.0080 cd         1 4G2       0.373000
      8 N11         -1.0980     0.5550    -0.0390 nc         1 4G2      -0.618000
      9 C6           1.0150    -0.7330    -0.0030 ca         1 4G2      -0.058500
     10 C1           1.8390     0.4160    -0.0320 ca         1 4G2      -0.076000
     11 C2           3.2380     0.2920    -0.0280 ca         1 4G2       0.120000
     12 C3           3.8360    -0.9760     0.0060 ca         1 4G2      -0.131000
     13 C4           3.0310    -2.1260     0.0350 ca         1 4G2      -0.108000
     14 C5           1.6300    -2.0060     0.0310 ca         1 4G2      -0.133000
     15 Cl1          4.2460     1.7330    -0.0640 cl         1 4G2      -0.225000
     16 C15         -3.8970    -1.9400     0.0230 c3         1 4G2      -0.005800
     17 H8          -1.1280    -2.6280     0.0440 hn         1 4G2       0.322000
     18 H151        -4.5070    -1.7590    -0.8690 hc         1 4G2       0.040700
     19 H152        -3.6630    -3.0120     0.0510 hc         1 4G2       0.040700
     20 H153        -4.5080    -1.7140     0.9050 hc         1 4G2       0.040700
     21 H1           1.3990     1.4090    -0.0590 ha         1 4G2       0.168000
     22 H5           1.0270    -2.9100     0.0540 ha         1 4G2       0.101000
     23 H3           4.9190    -1.0680     0.0100 ha         1 4G2       0.114000
     24 H4           3.4920    -3.1110     0.0610 ha         1 4G2       0.102000
@<TRIPOS>BOND
     1     1     2 1   
     2     2     3 1   
     3     2     4 1   
     4     4     5 2   
     5     4     8 1   
     6     5     6 1   
     7     5    16 1   
     8     6     7 1   
     9     6    17 1   
    10     7     8 2   
    11     7     9 1   
    12     9    10 ar  
    13     9    14 ar  
    14    10    11 ar  
    15    10    21 1   
    16    11    12 ar  
    17    11    15 1   
    18    12    13 ar  
    19    12    23 1   
    20    13    14 ar  
    21    13    24 1   
    22    14    22 1   
    23    16    18 1   
    24    16    19 1   
    25    16    20 1   
@<TRIPOS>SUBSTRUCTURE
     1 4G2         1 TEMP              0 ****  ****    0 ROOT
