@<TRIPOS>MOLECULE
4G2
   24    25     1     0     0
SMALL
bcc


@<TRIPOS>ATOM
      1 O14         -4.6780     0.9610    -0.0230 o          1 4G2      -0.820300
      2 C12         -3.4900     1.3490    -0.0250 c          1 4G2       0.841100
      3 O13         -3.0890     2.5270    -0.0490 o          1 4G2      -0.820300
      4 C10         -2.4390     0.2760    -0.0020 cc         1 4G2       0.286800
      5 C9          -2.6200    -1.0930     0.0210 cd         1 4G2      -0.188900
      6 N8          -1.3610    -1.6110     0.0190 na         1 4G2      -0.311900
      7 C7          -0.4730    -0.5850    -0.0010 cd         1 4G2       0.373000
      8 N11         -1.1040     0.5610    -0.0130 nc         1 4G2      -0.618000
      9 C6           0.9760    -0.7480    -0.0060 ca         1 4G2      -0.058500
     10 C1           1.7760     0.3970     0.0030 ca         1 4G2      -0.094000
     11 C2           3.1520     0.2700    -0.0050 ca         1 4G2       0.028400
     12 C3           3.7710    -0.9720    -0.0200 ca         1 4G2      -0.149000
     13 C4           2.9720    -2.1050    -0.0280 ca         1 4G2      -0.126000
     14 C5           1.5900    -2.0010    -0.0210 ca         1 4G2      -0.151000
     15 CL1          4.1290     1.7030     0.0050 cl         1 4G2      -0.133400
     16 C15         -3.8180    -1.9720     0.0260 c3         1 4G2      -0.005800
     17 H8          -1.1500    -2.5980     0.0330 hn         1 4G2       0.271700
     18 H151        -4.1560    -2.1920    -0.9880 hc         1 4G2       0.040700
     19 H152        -3.6030    -2.9230     0.5140 hc         1 4G2       0.040700
     20 H153        -4.6410    -1.4900     0.5450 hc         1 4G2       0.040700
     21 H1           1.3130     1.3750     0.0140 ha         1 4G2       0.186000
     22 H5           1.0020    -2.9100    -0.0300 ha         1 4G2       0.119000
     23 H3           4.8490    -1.0540    -0.0250 ha         1 4G2       0.132000
     24 H4           3.4350    -3.0830    -0.0410 ha         1 4G2       0.120000
@<TRIPOS>BOND
     1     1     2 1   
     2     2     3 1   
     3     2     4 1   
     4     4     5 2   
     5     4     8 1   
     6     5     6 1   
     7     5    16 1   
     8     6     7 1   
     9     6    17 1   
    10     7     8 2   
    11     7     9 1   
    12     9    10 ar  
    13     9    14 ar  
    14    10    11 ar  
    15    10    21 1   
    16    11    12 ar  
    17    11    15 1   
    18    12    13 ar  
    19    12    23 1   
    20    13    14 ar  
    21    13    24 1   
    22    14    22 1   
    23    16    18 1   
    24    16    19 1   
    25    16    20 1   
@<TRIPOS>SUBSTRUCTURE
     1 4G2         1 TEMP              0 ****  ****    0 ROOT
