@<TRIPOS>MOLECULE
4G3
   31    32     1     0     0
SMALL
bcc


@<TRIPOS>ATOM
      1 C8           4.6850     1.4010    -0.9660 ca         1 4G3      -0.094000
      2 C2          -2.9510     0.5560     1.0480 ca         1 4G3       0.005000
      3 C7           3.3700     1.6090    -0.5660 ca         1 4G3      -0.149000
      4 C9           5.3660     0.2540    -0.5970 ca         1 4G3      -0.151000
      5 C3          -1.5840     0.6540     0.9910 ca         1 4G3      -0.338300
      6 C11          3.4100    -0.5000     0.5910 ca         1 4G3      -0.206000
      7 C12         -2.8920    -0.7350    -0.9360 ca         1 4G3       0.489200
      8 C1          -3.6580    -0.1490     0.0680 ca         1 4G3      -0.344900
      9 C6           2.7320     0.6570     0.2190 ca         1 4G3      -0.077300
     10 C10          4.7250    -0.7050     0.1870 ca         1 4G3       0.139100
     11 C4          -0.9110     0.0230    -0.0750 ca         1 4G3       0.705200
     12 C5           1.3010     0.8500     0.6400 c3         1 4G3       0.279100
     13 N2          -1.5770    -0.6600    -1.0160 nb         1 4G3      -0.766000
     14 N           -5.7910    -0.8610    -0.8240 nt         1 4G3      -0.674000
     15 N1           0.4290     0.0620    -0.2040 nu         1 4G3      -0.877900
     16 O           -5.7300     0.2670     1.1180 o          1 4G3      -0.618100
     17 O1           5.4250    -1.8060     0.5230 oh         1 4G3      -0.492100
     18 H1           5.1860     2.1420    -1.5750 ha         1 4G3       0.137000
     19 H2          -3.4860     1.0320     1.8600 ha         1 4G3       0.158000
     20 H3           2.8460     2.5090    -0.8620 ha         1 4G3       0.137000
     21 H4           6.3910     0.0960    -0.9080 ha         1 4G3       0.150000
     22 H5          -1.0450     1.2040     1.7500 ha         1 4G3       0.143000
     23 H6           2.9080    -1.2430     1.2030 ha         1 4G3       0.137000
     24 H7          -3.3550    -1.3080    -1.7330 h4         1 4G3       0.006100
     25 H8           1.1800     0.5460     1.6830 h1         1 4G3       0.049200
     26 H9           1.0400     1.9120     0.5860 h1         1 4G3       0.049200
     27 H10         -5.3440    -1.2060    -1.6550 hn         1 4G3       0.311500
     28 H11         -6.7970    -0.8950    -0.8070 hn         1 4G3       0.311500
     29 H12          0.8080    -0.3300    -1.0510 hn         1 4G3       0.453800
     30 H13          4.8890    -2.3940     1.0670 ho         1 4G3       0.428000
     31 C           -5.1380    -0.2270     0.1640 c          1 4G3       0.701700
@<TRIPOS>BOND
     1     1     3 ar  
     2     1     4 ar  
     3     1    18 1   
     4     2     5 ar  
     5     2     8 ar  
     6     2    19 1   
     7     3     9 ar  
     8     3    20 1   
     9     4    10 ar  
    10     4    21 1   
    11     5    11 ar  
    12     5    22 1   
    13     6     9 ar  
    14     6    10 ar  
    15     6    23 1   
    16     7     8 ar  
    17     7    13 ar  
    18     7    24 1   
    19     8    31 1   
    20     9    12 1   
    21    10    17 1   
    22    11    13 ar  
    23    11    15 1   
    24    12    15 1   
    25    12    25 1   
    26    12    26 1   
    27    14    27 1   
    28    14    28 1   
    29    14    31 1   
    30    15    29 1   
    31    16    31 2   
    32    17    30 1   
@<TRIPOS>SUBSTRUCTURE
     1 4G3         1 TEMP              0 ****  ****    0 ROOT
