@<TRIPOS>MOLECULE
4G3
   31    32     1     0     0
SMALL
No Charge or Current Charge


@<TRIPOS>ATOM
      1 C8           4.6900     1.4080    -1.0060 ca         1 4G3      -0.076000
      2 C2          -3.0820     0.7580     1.0340 ca         1 4G3       0.023000
      3 C7           3.3890     1.6050    -0.5120 ca         1 4G3      -0.131000
      4 C9           5.3770     0.2170    -0.7170 ca         1 4G3      -0.133000
      5 C3          -1.6880     0.9010     1.0000 ca         1 4G3      -0.255000
      6 C11          3.4640    -0.5790     0.5580 ca         1 4G3      -0.188000
      7 C12         -2.8640    -0.7050    -0.8780 ca         1 4G3       0.423900
      8 C1          -3.6880    -0.0690     0.0670 ca         1 4G3      -0.279600
      9 C6           2.7670     0.6140     0.2750 ca         1 4G3      -0.077300
     10 C10          4.7640    -0.7750     0.0640 ca         1 4G3       0.139100
     11 C4          -0.9720     0.2170     0.0150 ca         1 4G3       0.639900
     12 C5           1.3560     0.8290     0.8090 c3         1 4G3       0.279100
     13 N2          -1.5200    -0.5650    -0.9070 nb         1 4G3      -0.766000
     14 N           -5.7180    -1.0560    -0.8850 nt         1 4G3      -0.607000
     15 N1           0.3780     0.2740    -0.1290 nu         1 4G3      -0.933100
     16 O           -5.9030     0.2860     0.8670 o          1 4G3      -0.618100
     17 O1           5.4350    -1.9280     0.3390 oh         1 4G3      -0.531100
     18 H1           5.1640     2.1770    -1.6130 ha         1 4G3       0.119000
     19 H2          -3.6710     1.2770     1.7890 ha         1 4G3       0.140000
     20 H3           2.8610     2.5280    -0.7420 ha         1 4G3       0.119000
     21 H4           6.3830     0.0630    -1.0990 ha         1 4G3       0.132000
     22 H5          -1.1810     1.5300     1.7240 ha         1 4G3       0.125000
     23 H6           2.9870    -1.3490     1.1620 ha         1 4G3       0.119000
     24 H7          -3.2770    -1.3540    -1.6480 h4         1 4G3       0.006100
     25 H8           1.2590     0.3400     1.7880 h1         1 4G3       0.049200
     26 H9           1.1770     1.9030     0.9540 h1         1 4G3       0.049200
     27 H10         -5.1370    -1.5180    -1.5670 hn         1 4G3       0.311500
     28 H11         -6.7180    -1.1850    -0.8940 hn         1 4G3       0.311500
     29 H12          0.7180    -0.3290    -0.8700 hn         1 4G3       0.509000
     30 H13          4.8580    -2.4990     0.8900 ho         1 4G3       0.467000
     31 C           -5.1730    -0.2570     0.0560 c          1 4G3       0.634700
@<TRIPOS>BOND
     1     1     3 ar  
     2     1     4 ar  
     3     1    18 1   
     4     2     5 ar  
     5     2     8 ar  
     6     2    19 1   
     7     3     9 ar  
     8     3    20 1   
     9     4    10 ar  
    10     4    21 1   
    11     5    11 ar  
    12     5    22 1   
    13     6     9 ar  
    14     6    10 ar  
    15     6    23 1   
    16     7     8 ar  
    17     7    13 ar  
    18     7    24 1   
    19     8    31 1   
    20     9    12 1   
    21    10    17 1   
    22    11    13 ar  
    23    11    15 1   
    24    12    15 1   
    25    12    25 1   
    26    12    26 1   
    27    14    27 1   
    28    14    28 1   
    29    14    31 1   
    30    15    29 1   
    31    16    31 2   
    32    17    30 1   
@<TRIPOS>SUBSTRUCTURE
     1 4G3         1 TEMP              0 ****  ****    0 ROOT
