@<TRIPOS>MOLECULE
4G4
   38    39     1     0     0
SMALL
No Charge or Current Charge


@<TRIPOS>ATOM
      1 C7           4.2890     2.2440     0.5240 ca         1 4G4      -0.130000
      2 C6           5.1720     1.1700     0.7060 ca         1 4G4      -0.080000
      3 C14         -3.2420     0.1800    -1.1270 ca         1 4G4       0.022000
      4 C8           2.9990     2.0130     0.0210 ca         1 4G4      -0.086000
      5 C5           4.7610    -0.1330     0.3860 ca         1 4G4      -0.159000
      6 C13         -1.8550     0.3730    -1.1550 ca         1 4G4      -0.253000
      7 C16         -3.0820     0.1930     1.2850 ca         1 4G4       0.421900
      8 C15         -3.8750     0.0870     0.1280 ca         1 4G4      -0.282600
      9 C9           2.5770     0.7050    -0.3020 ca         1 4G4      -0.125300
     10 C4           3.4680    -0.3830    -0.1150 ca         1 4G4       0.287000
     11 C12         -1.1710     0.4610     0.0600 ca         1 4G4       0.638900
     12 C10          1.1790     0.5200    -0.8830 c3         1 4G4       0.279100
     13 N17         -1.7440     0.3790     1.2540 nb         1 4G4      -0.769000
     14 N19         -5.9250    -0.2040     1.4360 nt         1 4G4      -0.608000
     15 N11          0.1690     0.6500     0.1710 nu         1 4G4      -0.936100
     16 N2           3.0990    -1.7180    -0.4110 nh         1 4G4      -0.780400
     17 O20         -6.0590    -0.2130    -0.7740 o          1 4G4      -0.616100
     18 H1           4.6040     3.2560     0.7710 ha         1 4G4       0.118000
     19 H2           6.1730     1.3470     1.0950 ha         1 4G4       0.114000
     20 H3          -3.8070     0.1070    -2.0560 ha         1 4G4       0.137000
     21 H4           2.3230     2.8530    -0.1230 ha         1 4G4       0.115000
     22 H5           5.4490    -0.9600     0.5380 ha         1 4G4       0.116000
     23 H6          -1.3280     0.4540    -2.0990 ha         1 4G4       0.128000
     24 H7          -3.5160     0.1290     2.2810 h4         1 4G4       0.008100
     25 H8           4.6650    -3.1440    -0.6290 h1         1 4G4       0.037533
     26 H9           3.3570    -3.2760    -1.8360 h1         1 4G4       0.037533
     27 H10          4.5410    -1.9590    -1.9580 h1         1 4G4       0.037533
     28 H11          1.6950    -1.7560     1.1920 h1         1 4G4       0.037533
     29 H12          1.1750    -2.6180    -0.2760 h1         1 4G4       0.037533
     30 H13          2.4110    -3.3320     0.7980 h1         1 4G4       0.037533
     31 H14          1.0120     1.2840    -1.6560 h1         1 4G4       0.057200
     32 H15          1.0910    -0.4560    -1.3790 h1         1 4G4       0.057200
     33 H16         -5.3670    -0.1300     2.2720 hn         1 4G4       0.311000
     34 H17         -6.9230    -0.3420     1.4990 hn         1 4G4       0.311000
     35 H18          0.4830     0.6290     1.1350 hn         1 4G4       0.504000
     36 C18         -5.3550    -0.1190     0.2170 c          1 4G4       0.633700
     37 C1           3.9640    -2.5720    -1.2520 c3         1 4G4       0.169600
     38 C3           2.0370    -2.3940     0.3660 c3         1 4G4       0.169600
@<TRIPOS>BOND
     1     1     2 ar  
     2     1     4 ar  
     3     1    18 1   
     4     2     5 ar  
     5     2    19 1   
     6     3     6 ar  
     7     3     8 ar  
     8     3    20 1   
     9     4     9 ar  
    10     4    21 1   
    11     5    10 ar  
    12     5    22 1   
    13     6    11 ar  
    14     6    23 1   
    15     7     8 ar  
    16     7    13 ar  
    17     7    24 1   
    18     8    36 1   
    19     9    10 ar  
    20     9    12 1   
    21    10    16 1   
    22    11    13 ar  
    23    11    15 1   
    24    12    15 1   
    25    12    31 1   
    26    12    32 1   
    27    14    33 1   
    28    14    34 1   
    29    14    36 1   
    30    15    35 1   
    31    16    37 1   
    32    16    38 1   
    33    17    36 2   
    34    25    37 1   
    35    26    37 1   
    36    27    37 1   
    37    28    38 1   
    38    29    38 1   
    39    30    38 1   
@<TRIPOS>SUBSTRUCTURE
     1 4G4         1 TEMP              0 ****  ****    0 ROOT
