@<TRIPOS>MOLECULE
4G4
   38    39     1     0     0
SMALL
bcc


@<TRIPOS>ATOM
      1 C7           4.3510     2.1470     0.5360 ca         1 4G4      -0.148000
      2 C6           5.2040     1.0550     0.5120 ca         1 4G4      -0.098000
      3 C14         -3.1110     0.0360    -1.0070 ca         1 4G4       0.004000
      4 C8           3.0320     1.9750     0.1430 ca         1 4G4      -0.104000
      5 C5           4.7340    -0.1900     0.1200 ca         1 4G4      -0.177000
      6 C13         -1.7490     0.2080    -0.9800 ca         1 4G4      -0.336300
      7 C16         -3.1470     0.3620     1.3400 ca         1 4G4       0.487200
      8 C15         -3.8580     0.0940     0.1740 ca         1 4G4      -0.347900
      9 C9           2.5450     0.7380    -0.2640 ca         1 4G4      -0.125300
     10 C4           3.4030    -0.3780    -0.2640 ca         1 4G4       0.148600
     11 C12         -1.1300     0.4530     0.2630 ca         1 4G4       0.704200
     12 C10          1.1200     0.6520    -0.7380 c3         1 4G4       0.279100
     13 N17         -1.8390     0.5380     1.3950 nb         1 4G4      -0.769000
     14 N19         -5.9630    -0.3160     1.2750 nt         1 4G4      -0.675000
     15 N11          0.2030     0.6080     0.3820 nu         1 4G4      -0.880900
     16 N2           2.9250    -1.6330    -0.6820 nh         1 4G4      -0.642000
     17 O20         -5.9310     0.0060    -0.9520 o          1 4G4      -0.616100
     18 H1           4.7090     3.1220     0.8390 ha         1 4G4       0.136000
     19 H2           6.2410     1.1650     0.8030 ha         1 4G4       0.132000
     20 H3          -3.6060    -0.1520    -1.9510 ha         1 4G4       0.155000
     21 H4           2.3650     2.8300     0.1260 ha         1 4G4       0.133000
     22 H5           5.4190    -1.0280     0.1210 ha         1 4G4       0.134000
     23 H6          -1.1720     0.1570    -1.8930 ha         1 4G4       0.146000
     24 H7          -3.6580     0.4620     2.2930 h4         1 4G4       0.008100
     25 H8           4.5360    -3.0230    -0.4280 h1         1 4G4       0.037533
     26 H9           3.3850    -3.3680    -1.7190 h1         1 4G4       0.037533
     27 H10          4.5560    -2.0680    -1.9220 h1         1 4G4       0.037533
     28 H11          1.2470    -1.5980     0.5950 h1         1 4G4       0.037533
     29 H12          1.5120    -3.1140    -0.2590 h1         1 4G4       0.037533
     30 H13          2.5340    -2.6890     1.1230 h1         1 4G4       0.037533
     31 H14          0.9030     1.5170    -1.3750 h1         1 4G4       0.057200
     32 H15          0.9940    -0.2380    -1.3590 h1         1 4G4       0.057200
     33 H16         -5.4770    -0.5200     2.1300 hn         1 4G4       0.311000
     34 H17         -6.9610    -0.4420     1.2790 hn         1 4G4       0.311000
     35 H18          0.5420     0.8830     1.2900 hn         1 4G4       0.448800
     36 C18         -5.3300    -0.0770     0.1130 c          1 4G4       0.700700
     37 C1           3.9050    -2.5620    -1.2010 c3         1 4G4       0.169600
     38 C3           2.0130    -2.2850     0.2440 c3         1 4G4       0.169600
@<TRIPOS>BOND
     1     1     2 ar  
     2     1     4 ar  
     3     1    18 1   
     4     2     5 ar  
     5     2    19 1   
     6     3     6 ar  
     7     3     8 ar  
     8     3    20 1   
     9     4     9 ar  
    10     4    21 1   
    11     5    10 ar  
    12     5    22 1   
    13     6    11 ar  
    14     6    23 1   
    15     7     8 ar  
    16     7    13 ar  
    17     7    24 1   
    18     8    36 1   
    19     9    10 ar  
    20     9    12 1   
    21    10    16 1   
    22    11    13 ar  
    23    11    15 1   
    24    12    15 1   
    25    12    31 1   
    26    12    32 1   
    27    14    33 1   
    28    14    34 1   
    29    14    36 1   
    30    15    35 1   
    31    16    37 1   
    32    16    38 1   
    33    17    36 2   
    34    25    37 1   
    35    26    37 1   
    36    27    37 1   
    37    28    38 1   
    38    29    38 1   
    39    30    38 1   
@<TRIPOS>SUBSTRUCTURE
     1 4G4         1 TEMP              0 ****  ****    0 ROOT
