@<TRIPOS>MOLECULE
4G5
   35    36     1     0     0
SMALL
bcc


@<TRIPOS>ATOM
      1 C10         -3.4920    -1.6560    -0.8990 ca         1 4G5      -0.123000
      2 C11         -4.7900    -2.1180    -1.0430 ca         1 4G5      -0.134500
      3 C12         -5.8580    -1.3680    -0.5660 ca         1 4G5      -0.150000
      4 C13         -5.6160    -0.1520     0.0580 ca         1 4G5      -0.134500
      5 C14         -4.3180     0.3130     0.2040 ca         1 4G5      -0.123000
      6 C9          -3.2400    -0.4330    -0.2750 ca         1 4G5      -0.074500
      7 C5          -1.8610     0.0300    -0.1430 cc         1 4G5       0.380000
      8 N1          -0.7980    -0.6480    -0.5230 nd         1 4G5      -0.677000
      9 N4          -1.4980     1.2200     0.3790 na         1 4G5      -0.262900
     10 C3          -0.1400     1.3250     0.3310 cc         1 4G5      -0.166200
     11 C15          0.5870     2.5160     0.8810 c          1 4G5       0.942200
     12 O17         -0.1390     3.4390     1.3000 o          1 4G5      -0.798800
     13 O16          1.8260     2.4490     0.8680 o          1 4G5      -0.798800
     14 C2           0.2710     0.1450    -0.2370 cd         1 4G5       0.225800
     15 C6           1.6410    -0.2700    -0.6370 c          1 4G5       0.649600
     16 O8           2.2440     0.3180    -1.5240 o          1 4G5      -0.594100
     17 N7           2.1400    -1.3810    -0.0560 n          1 4G5      -0.454800
     18 C22          1.6210    -1.9860     1.1520 c3         1 4G5       0.109300
     19 C18          3.4080    -1.8600    -0.5370 c3         1 4G5       0.025000
     20 C19          4.5710    -0.9990    -0.0580 c          1 4G5       0.651100
     21 O21          4.4970    -0.3240     0.9540 o          1 4G5      -0.566100
     22 N20          5.6730    -1.0950    -0.8150 nt         1 4G5      -0.688000
     23 H10         -2.6630    -2.2420    -1.2740 ha         1 4G5       0.141500
     24 H11         -4.9690    -3.0670    -1.5320 ha         1 4G5       0.119000
     25 H12         -6.8710    -1.7300    -0.6800 ha         1 4G5       0.116000
     26 H13         -6.4400     0.4410     0.4330 ha         1 4G5       0.119000
     27 H14         -4.1590     1.2630     0.7010 ha         1 4G5       0.141500
     28 H4          -2.0930     1.9430     0.7550 hn         1 4G5       0.315700
     29 H221         1.3350    -3.0240     0.9770 h1         1 4G5       0.035367
     30 H222         2.3770    -1.9610     1.9380 h1         1 4G5       0.035367
     31 H223         0.7500    -1.4490     1.5090 h1         1 4G5       0.035367
     32 H181         3.5600    -2.8750    -0.1610 h1         1 4G5       0.051200
     33 H182         3.4050    -1.9310    -1.6260 h1         1 4G5       0.051200
     34 H201         5.6880    -1.6230    -1.6690 hn         1 4G5       0.301000
     35 H202         6.5130    -0.6000    -0.5610 hn         1 4G5       0.301000
@<TRIPOS>BOND
     1     1     2 ar  
     2     1     6 ar  
     3     1    23 1   
     4     2     3 ar  
     5     2    24 1   
     6     3     4 ar  
     7     3    25 1   
     8     4     5 ar  
     9     4    26 1   
    10     5     6 ar  
    11     5    27 1   
    12     6     7 1   
    13     7     8 2   
    14     7     9 1   
    15     8    14 1   
    16     9    10 1   
    17     9    28 1   
    18    10    11 1   
    19    10    14 2   
    20    11    12 1   
    21    11    13 1   
    22    14    15 1   
    23    15    16 2   
    24    15    17 1   
    25    17    18 1   
    26    17    19 1   
    27    18    29 1   
    28    18    30 1   
    29    18    31 1   
    30    19    20 1   
    31    19    32 1   
    32    19    33 1   
    33    20    21 2   
    34    20    22 1   
    35    22    34 1   
    36    22    35 1   
@<TRIPOS>SUBSTRUCTURE
     1 4G5         1 TEMP              0 ****  ****    0 ROOT
