@<TRIPOS>MOLECULE
4G5
   35    36     1     0     0
SMALL
No Charge or Current Charge


@<TRIPOS>ATOM
      1 C10         -3.4360    -1.8290    -0.2840 ca         1 4G5      -0.105000
      2 C11         -4.7180    -2.4060    -0.2930 ca         1 4G5      -0.116500
      3 C12         -5.8530    -1.6030    -0.1000 ca         1 4G5      -0.132000
      4 C13         -5.7040    -0.2220     0.1020 ca         1 4G5      -0.116500
      5 C14         -4.4230     0.3570     0.1120 ca         1 4G5      -0.105000
      6 C9          -3.2690    -0.4390    -0.0810 ca         1 4G5      -0.074500
      7 C5          -1.9200     0.1550    -0.0740 cc         1 4G5       0.380000
      8 N1          -0.7930    -0.5010    -0.2590 nd         1 4G5      -0.677000
      9 N4          -1.6560     1.4800     0.1120 na         1 4G5      -0.262500
     10 C3          -0.2830     1.6690     0.1250 cc         1 4G5      -0.151600
     11 C15          0.4090     2.9450     0.4750 c          1 4G5       0.731600
     12 O17         -0.3000     3.9350     0.5920 o          1 4G5      -0.693500
     13 O16          1.5930     2.9680     0.7650 o          1 4G5      -0.693500
     14 C2           0.2620     0.4190    -0.1810 cd         1 4G5       0.160500
     15 C6           1.7430     0.1390    -0.4880 c          1 4G5       0.582600
     16 O8           2.5330     1.0020    -0.8590 o          1 4G5      -0.594100
     17 N7           2.2030    -1.2130    -0.4170 n          1 4G5      -0.387800
     18 C22          1.4430    -2.2970     0.2460 c3         1 4G5       0.109300
     19 C18          3.5940    -1.5520    -0.8420 c3         1 4G5       0.025000
     20 C19          4.6910    -1.3190     0.2240 c          1 4G5       0.584100
     21 O21          4.4720    -0.9580     1.3710 o          1 4G5      -0.566100
     22 N20          5.9620    -1.5580    -0.1770 nt         1 4G5      -0.621000
     23 H10         -2.5700    -2.4680    -0.4350 ha         1 4G5       0.123500
     24 H11         -4.8310    -3.4760    -0.4500 ha         1 4G5       0.101000
     25 H12         -6.8450    -2.0490    -0.1080 ha         1 4G5       0.098000
     26 H13         -6.5830     0.4010     0.2520 ha         1 4G5       0.101000
     27 H14         -4.3400     1.4290     0.2710 ha         1 4G5       0.123500
     28 H4          -2.3500     2.1950     0.2840 hn         1 4G5       0.366000
     29 H221         0.6870    -2.6980    -0.4400 h1         1 4G5       0.035367
     30 H222         2.1190    -3.1130     0.5330 h1         1 4G5       0.035367
     31 H223         0.9620    -1.9200     1.1580 h1         1 4G5       0.035367
     32 H181         3.6370    -2.6090    -1.1330 h1         1 4G5       0.051200
     33 H182         3.8600    -0.9690    -1.7330 h1         1 4G5       0.051200
     34 H201         6.1470    -1.8600    -1.1230 hn         1 4G5       0.301000
     35 H202         6.7190    -1.4270     0.4770 hn         1 4G5       0.301000
@<TRIPOS>BOND
     1     1     2 ar  
     2     1     6 ar  
     3     1    23 1   
     4     2     3 ar  
     5     2    24 1   
     6     3     4 ar  
     7     3    25 1   
     8     4     5 ar  
     9     4    26 1   
    10     5     6 ar  
    11     5    27 1   
    12     6     7 1   
    13     7     8 2   
    14     7     9 1   
    15     8    14 1   
    16     9    10 1   
    17     9    28 1   
    18    10    11 1   
    19    10    14 2   
    20    11    12 1   
    21    11    13 1   
    22    14    15 1   
    23    15    16 2   
    24    15    17 1   
    25    17    18 1   
    26    17    19 1   
    27    18    29 1   
    28    18    30 1   
    29    18    31 1   
    30    19    20 1   
    31    19    32 1   
    32    19    33 1   
    33    20    21 2   
    34    20    22 1   
    35    22    34 1   
    36    22    35 1   
@<TRIPOS>SUBSTRUCTURE
     1 4G5         1 TEMP              0 ****  ****    0 ROOT
