@<TRIPOS>MOLECULE
4G6
   18    17     1     0     0
SMALL
abcg2


@<TRIPOS>ATOM
      1 CAA         -0.4650     1.5350    -0.0400 c3         1 4G6      -0.083100
      2 CAF         -0.4270     0.0070    -0.0440 c3         1 4G6       0.174200
      3 CAB         -1.6460    -0.5350     0.6940 c3         1 4G6      -0.083100
      4 NAD         -0.4880    -0.4400    -1.4350 n8         1 4G6      -0.983200
      5 CAE          0.8420    -0.4940     0.6680 c3         1 4G6       0.114800
      6 NAC          2.0530    -0.0540    -0.0090 n8         1 4G6      -1.008200
      7 HAC         -0.4030     1.9290     0.9770 hc         1 4G6       0.037033
      8 HAB          0.3610     1.9600    -0.6140 hc         1 4G6       0.037033
      9 HAA         -1.3940     1.8940    -0.4850 hc         1 4G6       0.037033
     10 HAF         -2.5710    -0.1710     0.2440 hc         1 4G6       0.037033
     11 HAD         -1.6690    -1.6280     0.6720 hc         1 4G6       0.037033
     12 HAE         -1.6380    -0.2290     1.7420 hc         1 4G6       0.037033
     13 HAL          0.4070    -0.2310    -1.8650 hn         1 4G6       0.397000
     14 H1          -0.5590    -1.4530    -1.4540 hn         1 4G6       0.397000
     15 HAH          0.7990    -0.1990     1.7270 h1         1 4G6       0.029200
     16 HAG          0.8270    -1.5890     0.6550 h1         1 4G6       0.029200
     17 HAI          2.2530     0.9080     0.2320 hn         1 4G6       0.396500
     18 H3           2.8420    -0.5900     0.3270 hn         1 4G6       0.396500
@<TRIPOS>BOND
     1     1     2 1   
     2     1     7 1   
     3     1     8 1   
     4     1     9 1   
     5     2     3 1   
     6     2     4 1   
     7     2     5 1   
     8     3    10 1   
     9     3    11 1   
    10     3    12 1   
    11     4    13 1   
    12     4    14 1   
    13     5     6 1   
    14     5    15 1   
    15     5    16 1   
    16     6    17 1   
    17     6    18 1   
@<TRIPOS>SUBSTRUCTURE
     1 4G6         1 TEMP              0 ****  ****    0 ROOT
