@<TRIPOS>MOLECULE
4G6
   18    17     1     0     0
SMALL
No Charge or Current Charge


@<TRIPOS>ATOM
      1 CAA         -0.4730     1.5820     0.0070 c3         1 4G6      -0.083100
      2 CAF         -0.4310     0.0330    -0.0410 c3         1 4G6       0.174200
      3 CAB         -1.6780    -0.5510     0.6650 c3         1 4G6      -0.083100
      4 NAD         -0.4470    -0.4000    -1.4470 n8         1 4G6      -0.983200
      5 CAE          0.8700    -0.5350     0.6280 c3         1 4G6       0.114800
      6 NAC          2.1260    -0.1070    -0.0460 n8         1 4G6      -1.008200
      7 HAC         -0.4200     1.9380     1.0430 hc         1 4G6       0.037033
      8 HAB          0.3630     2.0260    -0.5470 hc         1 4G6       0.037033
      9 HAA         -1.4040     1.9620    -0.4310 hc         1 4G6       0.037033
     10 HAF         -2.6030    -0.1950     0.1930 hc         1 4G6       0.037033
     11 HAD         -1.6780    -1.6470     0.6290 hc         1 4G6       0.037033
     12 HAE         -1.7010    -0.2500     1.7200 hc         1 4G6       0.037033
     13 HAL          0.5420    -0.5280    -1.6990 hn         1 4G6       0.397000
     14 H1          -0.8220    -1.3520    -1.4920 hn         1 4G6       0.397000
     15 HAH          0.9110    -0.2030     1.6750 h1         1 4G6       0.029200
     16 HAG          0.8380    -1.6340     0.6270 h1         1 4G6       0.029200
     17 HAI          2.2000     0.9160     0.0070 hn         1 4G6       0.396500
     18 H3           2.9310    -0.4360     0.5010 hn         1 4G6       0.396500
@<TRIPOS>BOND
     1     1     2 1   
     2     1     7 1   
     3     1     8 1   
     4     1     9 1   
     5     2     3 1   
     6     2     4 1   
     7     2     5 1   
     8     3    10 1   
     9     3    11 1   
    10     3    12 1   
    11     4    13 1   
    12     4    14 1   
    13     5     6 1   
    14     5    15 1   
    15     5    16 1   
    16     6    17 1   
    17     6    18 1   
@<TRIPOS>SUBSTRUCTURE
     1 4G6         1 TEMP              0 ****  ****    0 ROOT
