@<TRIPOS>MOLECULE
4G7
   37    38     1     0     0
SMALL
No Charge or Current Charge


@<TRIPOS>ATOM
      1 C3           1.6560     1.4700     0.0570 c3         1 4G7       0.153300
      2 C4           3.0000     0.9650     0.5600 ca         1 4G7      -0.139300
      3 C5           3.9310     0.4100    -0.3410 ca         1 4G7      -0.072000
      4 C6           5.1850    -0.0690     0.1110 ca         1 4G7      -0.140600
      5 C11          4.5540     0.5690     2.3900 ca         1 4G7      -0.154000
      6 C12          3.3160     1.0400     1.9280 ca         1 4G7      -0.135000
      7 C19         -0.6500     0.5540    -0.3080 c          1 4G7       0.644700
      8 O20         -1.0440     1.6100    -0.7820 o          1 4G7      -0.579100
      9 C21         -1.5060    -0.6890    -0.2050 ca         1 4G7      -0.222600
     10 C24         -1.6750    -3.1320    -0.1670 ca         1 4G7      -0.229000
     11 C30         -2.9160    -0.6030    -0.0780 ca         1 4G7       0.228100
     12 C32         -4.9530     0.8040     0.1490 c3         1 4G7       0.002600
     13 C33         -5.3980     2.2930     0.2450 c          1 4G7       0.728000
     14 N1           0.6540     0.4120     0.1070 ns         1 4G7      -0.500900
     15 C10          5.4820     0.0190     1.4910 ca         1 4G7      -0.091000
     16 C22         -0.8970    -1.9680    -0.2470 ca         1 4G7      -0.021000
     17 C26         -3.0630    -3.0360    -0.0460 ca         1 4G7       0.202000
     18 F27         -3.8090    -4.1580     0.0300 f          1 4G7      -0.205000
     19 C28         -3.6850    -1.7860    -0.0000 ca         1 4G7      -0.283000
     20 O31         -3.5210     0.6390     0.0080 os         1 4G7      -0.276100
     21 O34         -6.5980     2.5190     0.3320 o          1 4G7      -0.713000
     22 O35         -4.5540     3.1820     0.2330 o          1 4G7      -0.713000
     23 H1           1.3180     2.3120     0.6760 h1         1 4G7       0.052200
     24 H2           1.7530     1.8240    -0.9780 h1         1 4G7       0.052200
     25 H3           3.6760     0.3520    -1.3970 ha         1 4G7       0.134000
     26 H5           4.7950     0.6290     3.4490 ha         1 4G7       0.077000
     27 H6           2.6030     1.4620     2.6320 ha         1 4G7       0.081000
     28 H7          -1.2020    -4.1100    -0.2060 ha         1 4G7       0.123000
     29 H8          -5.3030     0.2990     1.0590 h1         1 4G7       0.016700
     30 H9          -5.4700     0.3580    -0.7100 h1         1 4G7       0.016700
     31 H10          0.9170    -0.4760     0.5120 hn         1 4G7       0.307500
     32 H11          6.4360    -0.3400     1.8720 ha         1 4G7       0.118000
     33 H12          0.1800    -2.0770    -0.3670 ha         1 4G7       0.144000
     34 H13         -4.7640    -1.7560     0.1010 ha         1 4G7       0.132000
     35 C1           6.1860    -0.6650    -0.8670 c          1 4G7       0.713600
     36 O1           7.2540    -1.0770    -0.4350 o          1 4G7      -0.726000
     37 O2           5.8910    -0.7120    -2.0530 o          1 4G7      -0.726000
@<TRIPOS>BOND
     1     1     2 1   
     2     1    14 1   
     3     1    23 1   
     4     1    24 1   
     5     2     3 ar  
     6     2     6 ar  
     7     3     4 ar  
     8     3    25 1   
     9     4    15 ar  
    10     4    35 1   
    11     5     6 ar  
    12     5    15 ar  
    13     5    26 1   
    14     6    27 1   
    15     7     8 2   
    16     7     9 1   
    17     7    14 1   
    18     9    11 ar  
    19     9    16 ar  
    20    10    16 ar  
    21    10    17 ar  
    22    10    28 1   
    23    11    19 ar  
    24    11    20 1   
    25    12    13 1   
    26    12    20 1   
    27    12    29 1   
    28    12    30 1   
    29    13    21 1   
    30    13    22 1   
    31    14    31 1   
    32    15    32 1   
    33    16    33 1   
    34    17    18 1   
    35    17    19 ar  
    36    19    34 1   
    37    35    36 1   
    38    35    37 1   
@<TRIPOS>SUBSTRUCTURE
     1 4G7         1 TEMP              0 ****  ****    0 ROOT
