@<TRIPOS>MOLECULE
4G7
   37    38     1     0     0
SMALL
abcg2


@<TRIPOS>ATOM
      1 C3           1.3350     1.6790     1.1370 c3         1 4G7       0.153300
      2 C4           2.7490     1.1490     1.0900 ca         1 4G7      -0.139300
      3 C5           3.1070     0.1300     0.2150 ca         1 4G7      -0.072000
      4 C6           4.4070    -0.3600     0.1550 ca         1 4G7      -0.140600
      5 C11          5.0300     1.2180     1.8690 ca         1 4G7      -0.154000
      6 C12          3.7250     1.6890     1.9220 ca         1 4G7      -0.135000
      7 C19         -0.4020     0.5790    -0.2270 c          1 4G7       0.644700
      8 O20         -0.4240     1.4280    -1.1030 o          1 4G7      -0.579100
      9 C21         -1.2010    -0.6850    -0.3270 ca         1 4G7      -0.222600
     10 C24         -1.2640    -3.0830    -0.6650 ca         1 4G7      -0.229000
     11 C30         -2.6030    -0.6390    -0.3000 ca         1 4G7       0.228100
     12 C32         -4.5650     0.6640    -0.0130 c3         1 4G7       0.002600
     13 C33         -4.9870     2.1230     0.2320 c          1 4G7       0.728000
     14 N1           0.3500     0.6570     0.8850 ns         1 4G7      -0.500900
     15 C10          5.3700     0.1980     0.9910 ca         1 4G7      -0.091000
     16 C22         -0.5560    -1.8990    -0.5000 ca         1 4G7      -0.021000
     17 C26         -2.6400    -3.0050    -0.6350 ca         1 4G7       0.202000
     18 F27         -3.3570    -4.1270    -0.7890 f          1 4G7      -0.205000
     19 C28         -3.3290    -1.8190    -0.4520 ca         1 4G7      -0.283000
     20 O31         -3.1530     0.5590    -0.1020 os         1 4G7      -0.276100
     21 O34         -6.2210     2.2660     0.3370 o          1 4G7      -0.713000
     22 O35         -4.1050     2.9890     0.2940 o          1 4G7      -0.713000
     23 H1           1.1440     2.1330     2.1110 h1         1 4G7       0.052200
     24 H2           1.2010     2.4670     0.3950 h1         1 4G7       0.052200
     25 H3           2.3670    -0.3090    -0.4410 ha         1 4G7       0.134000
     26 H5           5.7800     1.6410     2.5250 ha         1 4G7       0.077000
     27 H6           3.4650     2.4750     2.6220 ha         1 4G7       0.081000
     28 H7          -0.7590    -4.0270    -0.8130 ha         1 4G7       0.123000
     29 H8          -4.9430     0.0390     0.8050 h1         1 4G7       0.016700
     30 H9          -5.0350     0.3080    -0.9370 h1         1 4G7       0.016700
     31 H10          0.2820    -0.0920     1.5560 hn         1 4G7       0.307500
     32 H11          6.3850    -0.1750     0.9600 ha         1 4G7       0.118000
     33 H12          0.5270    -1.9350    -0.5240 ha         1 4G7       0.144000
     34 H13         -4.4100    -1.8380    -0.4270 ha         1 4G7       0.132000
     35 C1           4.7530    -1.4980    -0.7990 c          1 4G7       0.713600
     36 O1           5.9460    -1.8560    -0.8290 o          1 4G7      -0.726000
     37 O2           3.8120    -1.9740    -1.4630 o          1 4G7      -0.726000
@<TRIPOS>BOND
     1     1     2 1   
     2     1    14 1   
     3     1    23 1   
     4     1    24 1   
     5     2     3 ar  
     6     2     6 ar  
     7     3     4 ar  
     8     3    25 1   
     9     4    15 ar  
    10     4    35 1   
    11     5     6 ar  
    12     5    15 ar  
    13     5    26 1   
    14     6    27 1   
    15     7     8 2   
    16     7     9 1   
    17     7    14 1   
    18     9    11 ar  
    19     9    16 ar  
    20    10    16 ar  
    21    10    17 ar  
    22    10    28 1   
    23    11    19 ar  
    24    11    20 1   
    25    12    13 1   
    26    12    20 1   
    27    12    29 1   
    28    12    30 1   
    29    13    21 1   
    30    13    22 1   
    31    14    31 1   
    32    15    32 1   
    33    16    33 1   
    34    17    18 1   
    35    17    19 ar  
    36    19    34 1   
    37    35    36 1   
    38    35    37 1   
@<TRIPOS>SUBSTRUCTURE
     1 4G7         1 TEMP              0 ****  ****    0 ROOT
