@<TRIPOS>MOLECULE
4G8
   43    45     1     0     0
SMALL
bcc


@<TRIPOS>ATOM
      1 C20         -4.0130    -0.3590    -0.5800 ca         1 4G8      -0.116500
      2 C21         -5.1730    -0.8170    -1.1940 ca         1 4G8      -0.147000
      3 C22         -6.3430    -0.0710    -1.1350 ca         1 4G8      -0.165000
      4 C23         -6.3460     1.1420    -0.4580 ca         1 4G8      -0.147000
      5 C24         -5.1850     1.6020     0.1490 ca         1 4G8      -0.116500
      6 C19         -4.0100     0.8560     0.0990 ca         1 4G8      -0.073300
      7 C18         -2.7780     1.3730     0.8040 c3         1 4G8       0.143300
      8 N17         -1.5430     0.8520     0.2680 n          1 4G8      -0.417800
      9 C25         -1.0630     1.4800    -0.9440 c3         1 4G8      -0.045000
     10 C26         -0.3070     2.8090    -0.7250 c          1 4G8       0.922600
     11 O27         -0.2480     3.2620     0.4280 o          1 4G8      -0.846300
     12 O28          0.1570     3.3120    -1.7680 o          1 4G8      -0.846300
     13 C15         -0.8430    -0.0720     0.9450 c          1 4G8       0.649600
     14 O16         -1.2130    -0.5620     2.0060 o          1 4G8      -0.657100
     15 C9           0.4680    -0.4730     0.3590 cc         1 4G8       0.271800
     16 N8           1.5890     0.2580     0.5850 nc         1 4G8      -0.617000
     17 C10          0.7590    -1.5940    -0.3770 cd         1 4G8      -0.208200
     18 C12         -0.0850    -2.7000    -0.9240 c          1 4G8       0.954200
     19 O14         -1.3050    -2.6200    -0.6900 o          1 4G8      -0.826800
     20 O13          0.5210    -3.5850    -1.5590 o          1 4G8      -0.826800
     21 N11          2.1040    -1.5150    -0.5940 na         1 4G8      -0.266900
     22 C1           2.5700    -0.3950    -0.0050 cd         1 4G8       0.365000
     23 C2           3.9630     0.0400    -0.0260 ca         1 4G8      -0.056500
     24 C3           4.2860     1.3070     0.4660 ca         1 4G8      -0.121000
     25 C4           5.5990     1.7470     0.4630 ca         1 4G8      -0.141500
     26 C5           6.6110     0.9340    -0.0330 ca         1 4G8      -0.167000
     27 C6           6.2980    -0.3260    -0.5260 ca         1 4G8      -0.141500
     28 C7           4.9840    -0.7720    -0.5210 ca         1 4G8      -0.121000
     29 H20         -3.1070    -0.9510    -0.6350 ha         1 4G8       0.157500
     30 H21         -5.1610    -1.7620    -1.7220 ha         1 4G8       0.110000
     31 H22         -7.2440    -0.4290    -1.6160 ha         1 4G8       0.098000
     32 H23         -7.2500     1.7350    -0.4070 ha         1 4G8       0.110000
     33 H24         -5.1940     2.5530     0.6690 ha         1 4G8       0.157500
     34 H181        -2.7490     2.4620     0.7430 h1         1 4G8       0.065700
     35 H182        -2.8370     1.1270     1.8650 h1         1 4G8       0.065700
     36 H251        -0.4270     0.7890    -1.4970 h1         1 4G8       0.038700
     37 H252        -1.9230     1.6670    -1.5950 h1         1 4G8       0.038700
     38 H11          2.6180    -2.1960    -1.1320 hn         1 4G8       0.300700
     39 H3           3.4970     1.9440     0.8440 ha         1 4G8       0.150500
     40 H7           4.7690    -1.7620    -0.9020 ha         1 4G8       0.150500
     41 H4           5.8350     2.7310     0.8470 ha         1 4G8       0.110000
     42 H5           7.6360     1.2790    -0.0340 ha         1 4G8       0.102000
     43 H6           7.0780    -0.9680    -0.9120 ha         1 4G8       0.110000
@<TRIPOS>BOND
     1     1     2 ar  
     2     1     6 ar  
     3     1    29 1   
     4     2     3 ar  
     5     2    30 1   
     6     3     4 ar  
     7     3    31 1   
     8     4     5 ar  
     9     4    32 1   
    10     5     6 ar  
    11     5    33 1   
    12     6     7 1   
    13     7     8 1   
    14     7    34 1   
    15     7    35 1   
    16     8     9 1   
    17     8    13 1   
    18     9    10 1   
    19     9    36 1   
    20     9    37 1   
    21    10    11 1   
    22    10    12 1   
    23    13    14 2   
    24    13    15 1   
    25    15    16 1   
    26    15    17 2   
    27    16    22 2   
    28    17    18 1   
    29    17    21 1   
    30    18    19 1   
    31    18    20 1   
    32    21    22 1   
    33    21    38 1   
    34    22    23 1   
    35    23    24 ar  
    36    23    28 ar  
    37    24    25 ar  
    38    24    39 1   
    39    25    26 ar  
    40    25    41 1   
    41    26    27 ar  
    42    26    42 1   
    43    27    28 ar  
    44    27    43 1   
    45    28    40 1   
@<TRIPOS>SUBSTRUCTURE
     1 4G8         1 TEMP              0 ****  ****    0 ROOT
