@<TRIPOS>MOLECULE
4G8
   43    45     1     0     0
SMALL
No Charge or Current Charge


@<TRIPOS>ATOM
      1 C20         -4.5810    -0.4510    -0.2390 ca         1 4G8      -0.098500
      2 C21         -5.6600    -0.5050    -1.1380 ca         1 4G8      -0.129000
      3 C22         -6.2180     0.6820    -1.6400 ca         1 4G8      -0.147000
      4 C23         -5.6970     1.9230    -1.2420 ca         1 4G8      -0.129000
      5 C24         -4.6170     1.9790    -0.3430 ca         1 4G8      -0.098500
      6 C19         -4.0510     0.7910     0.1640 ca         1 4G8      -0.073300
      7 C18         -2.8790     0.8520     1.1410 c3         1 4G8       0.143300
      8 N17         -1.5610     0.5480     0.5260 n          1 4G8      -0.350800
      9 C25         -1.0020     1.6220    -0.3570 c3         1 4G8      -0.045000
     10 C26         -0.1740     2.7410     0.3380 c          1 4G8       0.712000
     11 O27         -0.2280     2.8610     1.5550 o          1 4G8      -0.741000
     12 O28          0.4440     3.5170    -0.3790 o          1 4G8      -0.741000
     13 C15         -1.0010    -0.7670     0.6380 c          1 4G8       0.582600
     14 O16         -1.6730    -1.6480     1.1730 o          1 4G8      -0.657100
     15 C9           0.4380    -0.9900     0.1630 cc         1 4G8       0.206500
     16 N8           1.4180    -0.0130     0.1340 nc         1 4G8      -0.617000
     17 C10          1.0090    -2.2130    -0.1740 cd         1 4G8      -0.193600
     18 C12          0.3600    -3.5360    -0.4210 c          1 4G8       0.743600
     19 O14         -0.8470    -3.6280    -0.5580 o          1 4G8      -0.721500
     20 O13          1.1080    -4.4850    -0.6140 o          1 4G8      -0.721500
     21 N11          2.3670    -1.9450    -0.3320 na         1 4G8      -0.266500
     22 C1           2.5630    -0.5940    -0.1730 cd         1 4G8       0.365000
     23 C2           3.8500     0.1290    -0.3010 ca         1 4G8      -0.056500
     24 C3           3.9150     1.5290    -0.1120 ca         1 4G8      -0.103000
     25 C4           5.1360     2.2140    -0.2320 ca         1 4G8      -0.123500
     26 C5           6.3100     1.5100    -0.5400 ca         1 4G8      -0.149000
     27 C6           6.2620     0.1210    -0.7290 ca         1 4G8      -0.123500
     28 C7           5.0420    -0.5670    -0.6110 ca         1 4G8      -0.103000
     29 H20         -4.1560    -1.3760     0.1450 ha         1 4G8       0.139500
     30 H21         -6.0640    -1.4680    -1.4450 ha         1 4G8       0.092000
     31 H22         -7.0530     0.6400    -2.3350 ha         1 4G8       0.080000
     32 H23         -6.1280     2.8440    -1.6300 ha         1 4G8       0.092000
     33 H24         -4.2200     2.9460    -0.0410 ha         1 4G8       0.139500
     34 H181        -2.8320     1.8590     1.5760 h1         1 4G8       0.065700
     35 H182        -3.0740     0.1720     1.9800 h1         1 4G8       0.065700
     36 H251        -0.4000     1.1770    -1.1580 h1         1 4G8       0.038700
     37 H252        -1.8370     2.1240    -0.8600 h1         1 4G8       0.038700
     38 H11          3.0800    -2.6190    -0.5800 hn         1 4G8       0.351000
     39 H3           3.0150     2.0930     0.1270 ha         1 4G8       0.132500
     40 H7           5.0320    -1.6430    -0.7610 ha         1 4G8       0.132500
     41 H4           5.1710     3.2910    -0.0850 ha         1 4G8       0.092000
     42 H5           7.2550     2.0410    -0.6320 ha         1 4G8       0.084000
     43 H6           7.1720    -0.4260    -0.9680 ha         1 4G8       0.092000
@<TRIPOS>BOND
     1     1     2 ar  
     2     1     6 ar  
     3     1    29 1   
     4     2     3 ar  
     5     2    30 1   
     6     3     4 ar  
     7     3    31 1   
     8     4     5 ar  
     9     4    32 1   
    10     5     6 ar  
    11     5    33 1   
    12     6     7 1   
    13     7     8 1   
    14     7    34 1   
    15     7    35 1   
    16     8     9 1   
    17     8    13 1   
    18     9    10 1   
    19     9    36 1   
    20     9    37 1   
    21    10    11 1   
    22    10    12 1   
    23    13    14 2   
    24    13    15 1   
    25    15    16 1   
    26    15    17 2   
    27    16    22 2   
    28    17    18 1   
    29    17    21 1   
    30    18    19 1   
    31    18    20 1   
    32    21    22 1   
    33    21    38 1   
    34    22    23 1   
    35    23    24 ar  
    36    23    28 ar  
    37    24    25 ar  
    38    24    39 1   
    39    25    26 ar  
    40    25    41 1   
    41    26    27 ar  
    42    26    42 1   
    43    27    28 ar  
    44    27    43 1   
    45    28    40 1   
@<TRIPOS>SUBSTRUCTURE
     1 4G8         1 TEMP              0 ****  ****    0 ROOT
