@<TRIPOS>MOLECULE
4G9
   30    30     1     0     0
SMALL
abcg2


@<TRIPOS>ATOM
      1 CL2         -2.7310    -2.5750    -0.5630 cl         1 4G9      -0.161000
      2 C10         -1.3250    -1.6000    -0.3380 ca         1 4G9       0.174000
      3 C3          -1.3130    -0.2120    -0.4750 ca         1 4G9      -0.253500
      4 S           -2.7590     0.7780    -0.8450 sy         1 4G9       1.152600
      5 O1          -2.2660     2.0530    -1.3370 o          1 4G9      -0.526500
      6 O2          -3.6680     0.0110    -1.6710 o          1 4G9      -0.526500
      7 N1          -3.4980     1.0790     0.5960 n3         1 4G9      -0.712500
      8 C2          -2.7580     1.9090     1.5410 c3         1 4G9       0.173600
      9 C1          -4.2400    -0.0050     1.2280 c3         1 4G9       0.173600
     10 C9          -0.1470    -2.2500    -0.0090 ca         1 4G9      -0.100000
     11 C8           1.0330    -1.5580     0.1950 ca         1 4G9      -0.078000
     12 C5           1.0520    -0.1700     0.0680 ca         1 4G9      -0.034000
     13 C4          -0.1300     0.4850    -0.2720 ca         1 4G9      -0.082000
     14 N2           2.1800     0.6270     0.2490 ns         1 4G9      -0.153000
     15 C6           3.4340     0.2520     0.6140 c          1 4G9       0.604100
     16 O3           3.7770    -0.8830     0.8530 o          1 4G9      -0.540100
     17 C7           4.3770     1.4430     0.6810 c3         1 4G9       0.013600
     18 H4          -2.3240     2.7740     1.0490 h1         1 4G9       0.054033
     19 H5          -3.4640     2.2700     2.2870 h1         1 4G9       0.054033
     20 H6          -1.9700     1.3510     2.0580 h1         1 4G9       0.054033
     21 H1          -3.5900    -0.6950     1.7720 h1         1 4G9       0.054033
     22 H3          -4.9320     0.4450     1.9370 h1         1 4G9       0.054033
     23 H2          -4.8200    -0.5600     0.4970 h1         1 4G9       0.054033
     24 H12         -0.1430    -3.3270     0.0880 ha         1 4G9       0.135000
     25 H11          1.9210    -2.1120     0.4480 ha         1 4G9       0.157000
     26 H7          -0.1210     1.5610    -0.3850 ha         1 4G9       0.137000
     27 H8           2.0310     1.6150     0.0970 hn         1 4G9       0.156000
     28 H9           4.4830     1.8890    -0.3080 h1         1 4G9       0.083700
     29 H10          3.9820     2.2040     1.3540 h1         1 4G9       0.083700
     30 CL1          5.9800     0.9620     1.2550 cl         1 4G9      -0.204000
@<TRIPOS>BOND
     1     1     2 1   
     2     2     3 ar  
     3     2    10 ar  
     4     3     4 1   
     5     3    13 ar  
     6     4     5 2   
     7     4     6 2   
     8     4     7 1   
     9     7     8 1   
    10     7     9 1   
    11     8    18 1   
    12     8    19 1   
    13     8    20 1   
    14     9    21 1   
    15     9    22 1   
    16     9    23 1   
    17    10    11 ar  
    18    10    24 1   
    19    11    12 ar  
    20    11    25 1   
    21    12    13 ar  
    22    12    14 1   
    23    13    26 1   
    24    14    15 1   
    25    14    27 1   
    26    15    16 2   
    27    15    17 1   
    28    17    28 1   
    29    17    29 1   
    30    17    30 1   
@<TRIPOS>SUBSTRUCTURE
     1 4G9         1 TEMP              0 ****  ****    0 ROOT
