@<TRIPOS>MOLECULE
4G9
   30    30     1     0     0
SMALL
No Charge or Current Charge


@<TRIPOS>ATOM
      1 Cl2         -2.8420    -2.6020    -0.6270 cl         1 4G9      -0.161000
      2 C10         -1.4050    -1.6070    -0.3790 ca         1 4G9       0.174000
      3 C3          -1.3880    -0.1950    -0.5010 ca         1 4G9      -0.253500
      4 S           -2.8490     0.7880    -0.9450 sy         1 4G9       1.152600
      5 O1          -2.4140     2.0870    -1.4740 o          1 4G9      -0.526500
      6 O2          -3.8250    -0.0090    -1.6950 o          1 4G9      -0.526500
      7 N1          -3.5760     1.1330     0.5670 n3         1 4G9      -0.712500
      8 C2          -2.7650     2.0000     1.4500 c3         1 4G9       0.173600
      9 C1          -4.1040    -0.0490     1.2820 c3         1 4G9       0.173600
     10 C9          -0.2280    -2.2890    -0.0310 ca         1 4G9      -0.100000
     11 C8           0.9710    -1.5960     0.1970 ca         1 4G9      -0.078000
     12 C5           1.0080    -0.1910     0.0790 ca         1 4G9      -0.034000
     13 C4          -0.1710     0.4920    -0.2710 ca         1 4G9      -0.082000
     14 N2           2.1820     0.5880     0.2920 ns         1 4G9      -0.153000
     15 C6           3.4750     0.2500     0.6780 c          1 4G9       0.604100
     16 O3           3.8400    -0.8940     0.9280 o          1 4G9      -0.540100
     17 C7           4.4220     1.4580     0.7670 c3         1 4G9       0.013600
     18 H4          -2.4920     2.9380     0.9500 h1         1 4G9       0.054033
     19 H5          -3.3300     2.2650     2.3540 h1         1 4G9       0.054033
     20 H6          -1.8430     1.4950     1.7670 h1         1 4G9       0.054033
     21 H1          -3.2920    -0.7140     1.6040 h1         1 4G9       0.054033
     22 H3          -4.6600     0.2590     2.1770 h1         1 4G9       0.054033
     23 H2          -4.7940    -0.6220     0.6500 h1         1 4G9       0.054033
     24 H12         -0.2450    -3.3720     0.0630 ha         1 4G9       0.135000
     25 H11          1.8530    -2.1710     0.4600 ha         1 4G9       0.157000
     26 H7          -0.1380     1.5770    -0.3620 ha         1 4G9       0.137000
     27 H8           2.0470     1.5780     0.1300 hn         1 4G9       0.156000
     28 H9           4.4670     1.9410    -0.2160 h1         1 4G9       0.083700
     29 H10          4.0140     2.1700     1.4950 h1         1 4G9       0.083700
     30 Cl1          6.1310     1.0520     1.2740 cl         1 4G9      -0.204000
@<TRIPOS>BOND
     1     1     2 1   
     2     2     3 ar  
     3     2    10 ar  
     4     3     4 1   
     5     3    13 ar  
     6     4     5 2   
     7     4     6 2   
     8     4     7 1   
     9     7     8 1   
    10     7     9 1   
    11     8    18 1   
    12     8    19 1   
    13     8    20 1   
    14     9    21 1   
    15     9    22 1   
    16     9    23 1   
    17    10    11 ar  
    18    10    24 1   
    19    11    12 ar  
    20    11    25 1   
    21    12    13 ar  
    22    12    14 1   
    23    13    26 1   
    24    14    15 1   
    25    14    27 1   
    26    15    16 2   
    27    15    17 1   
    28    17    28 1   
    29    17    29 1   
    30    17    30 1   
@<TRIPOS>SUBSTRUCTURE
     1 4G9         1 TEMP              0 ****  ****    0 ROOT
