@<TRIPOS>MOLECULE
4GB
   51    52     1     0     0
SMALL
abcg2


@<TRIPOS>ATOM
      1 O3          -2.3490    -1.9100    -1.5640 o          1 4GB      -0.542000
      2 S2          -2.1670    -0.5590    -1.0530 sy         1 4GB       1.201600
      3 O2          -2.3380     0.5800    -1.9430 o          1 4GB      -0.542000
      4 N2          -3.1840    -0.3680     0.2020 n3         1 4GB      -0.798500
      5 C13         -3.6080    -1.5130     0.9970 c3         1 4GB       0.242300
      6 C12         -4.9150    -2.1420     0.5200 c3         1 4GB      -0.091400
      7 C11         -5.9090    -1.1470    -0.0790 c3         1 4GB      -0.066400
      8 C10         -6.0670     0.1780     0.6750 c3         1 4GB      -0.066400
      9 C9          -5.0590     1.2500     0.2620 c3         1 4GB      -0.091400
     10 C8          -3.6180     0.9520     0.6440 c3         1 4GB       0.242300
     11 C7          -0.5300    -0.4690    -0.3790 ca         1 4GB      -0.293500
     12 C6           0.0670     0.7800    -0.2390 ca         1 4GB      -0.026000
     13 C14          0.0980    -1.6230     0.0500 ca         1 4GB      -0.007000
     14 C15          1.3490    -1.5280     0.6440 ca         1 4GB      -0.174000
     15 C16          1.9550    -0.2930     0.8070 ca         1 4GB       0.130100
     16 O4           3.1500    -0.0980     1.3960 os         1 4GB      -0.364100
     17 C17          4.0030    -1.1900     1.6660 c3         1 4GB       0.296600
     18 C5           1.3180     0.8820     0.3540 ca         1 4GB      -0.059000
     19 N1           2.0090     2.0780     0.5370 ns         1 4GB      -0.147000
     20 C4           1.6640     3.3330     0.1370 c          1 4GB       0.606100
     21 O1           0.6290     3.5970    -0.4470 o          1 4GB      -0.576100
     22 C3           2.7070     4.3740     0.4520 c3         1 4GB      -0.181100
     23 H1          -2.8190    -2.2660     1.0470 h1         1 4GB       0.046950
     24 H2          -3.7210    -1.1400     2.0160 h1         1 4GB       0.046950
     25 H3          -4.7070    -2.9170    -0.2200 hc         1 4GB       0.050700
     26 H4          -5.3660    -2.6490     1.3770 hc         1 4GB       0.050700
     27 H5          -5.6200    -0.9280    -1.1110 hc         1 4GB       0.038950
     28 H6          -6.8780    -1.6470    -0.1440 hc         1 4GB       0.038950
     29 H7          -7.0660     0.5730     0.4760 hc         1 4GB       0.038950
     30 H8          -6.0250     0.0130     1.7570 hc         1 4GB       0.038950
     31 H9          -5.1160     1.3930    -0.8210 hc         1 4GB       0.050700
     32 H10         -5.3320     2.2060     0.7190 hc         1 4GB       0.050700
     33 H11         -3.5020     0.9850     1.7310 h1         1 4GB       0.046950
     34 H12         -2.9620     1.7230     0.2420 h1         1 4GB       0.046950
     35 H13         -0.4230     1.6680    -0.6020 ha         1 4GB       0.171000
     36 H14         -0.3550    -2.5950    -0.0770 ha         1 4GB       0.138000
     37 H15          1.8310    -2.4380     0.9710 ha         1 4GB       0.125000
     38 H16          4.8100    -0.7800     2.2700 h2         1 4GB       0.083200
     39 H17          3.5010    -1.9670     2.2480 h2         1 4GB       0.083200
     40 H19          2.8940     1.9910     1.0120 hn         1 4GB       0.163000
     41 H20          3.4240     4.4240    -0.3690 hc         1 4GB       0.064033
     42 H21          2.2390     5.3510     0.5490 hc         1 4GB       0.064033
     43 H22          3.2600     4.1550     1.3630 hc         1 4GB       0.064033
     44 S1           4.6710    -1.9660     0.1850 ss         1 4GB      -0.450000
     45 C2           5.7950    -0.6560    -0.3940 c3         1 4GB       0.074600
     46 C18          6.4290    -1.0850    -1.7050 c3         1 4GB      -0.083100
     47 H18          5.2310     0.2670    -0.5260 h1         1 4GB       0.059200
     48 H23          6.5580    -0.4850     0.3670 h1         1 4GB       0.059200
     49 H24          5.6780    -1.2450    -2.4780 hc         1 4GB       0.048033
     50 H25          7.1110    -0.3100    -2.0550 hc         1 4GB       0.048033
     51 H26          7.0020    -2.0060    -1.5920 hc         1 4GB       0.048033
@<TRIPOS>BOND
     1     1     2 2   
     2     2     3 2   
     3     2     4 1   
     4     2    11 1   
     5     4     5 1   
     6     4    10 1   
     7     5     6 1   
     8     5    23 1   
     9     5    24 1   
    10     6     7 1   
    11     6    25 1   
    12     6    26 1   
    13     7     8 1   
    14     7    27 1   
    15     7    28 1   
    16     8     9 1   
    17     8    29 1   
    18     8    30 1   
    19     9    10 1   
    20     9    31 1   
    21     9    32 1   
    22    10    33 1   
    23    10    34 1   
    24    11    12 ar  
    25    11    13 ar  
    26    12    18 ar  
    27    12    35 1   
    28    13    14 ar  
    29    13    36 1   
    30    14    15 ar  
    31    14    37 1   
    32    15    16 1   
    33    15    18 ar  
    34    16    17 1   
    35    17    38 1   
    36    17    39 1   
    37    17    44 1   
    38    18    19 1   
    39    19    20 1   
    40    19    40 1   
    41    20    21 2   
    42    20    22 1   
    43    22    41 1   
    44    22    42 1   
    45    22    43 1   
    46    44    45 1   
    47    45    46 1   
    48    45    47 1   
    49    45    48 1   
    50    46    49 1   
    51    46    50 1   
    52    46    51 1   
@<TRIPOS>SUBSTRUCTURE
     1 4GB         1 TEMP              0 ****  ****    0 ROOT
