@<TRIPOS>MOLECULE
4GB
   51    52     1     0     0
SMALL
No Charge or Current Charge


@<TRIPOS>ATOM
      1 O3          -1.9590    -2.9910    -1.0750 o          1 4GB      -0.542000
      2 S2          -2.1130    -1.5720    -0.7360 sy         1 4GB       1.201600
      3 O2          -2.6300    -0.5910    -1.6960 o          1 4GB      -0.542000
      4 N2          -3.1120    -1.5380     0.6470 n3         1 4GB      -0.798500
      5 C13         -4.4610    -2.1220     0.5170 c3         1 4GB       0.242300
      6 C12         -5.4730    -1.4150    -0.4220 c3         1 4GB      -0.091400
      7 C11         -5.5650     0.1340    -0.3880 c3         1 4GB      -0.066400
      8 C10         -5.1870     0.8250     0.9390 c3         1 4GB      -0.066400
      9 C9          -3.6610     0.9120     1.1820 c3         1 4GB      -0.091400
     10 C8          -2.9830    -0.4110     1.5950 c3         1 4GB       0.242300
     11 C7          -0.5250    -1.0120    -0.0890 ca         1 4GB      -0.293500
     12 C6          -0.0780     0.3030    -0.3340 ca         1 4GB      -0.026000
     13 C14          0.2590    -1.8880     0.6830 ca         1 4GB      -0.007000
     14 C15          1.4880    -1.4560     1.2030 ca         1 4GB      -0.174000
     15 C16          1.9440    -0.1430     0.9560 ca         1 4GB       0.130100
     16 O4           3.1470     0.3250     1.4590 os         1 4GB      -0.364100
     17 C17          4.1280    -0.5250     2.0820 c3         1 4GB       0.296600
     18 C5           1.1580     0.7460     0.1900 ca         1 4GB      -0.059000
     19 N1           1.6670     2.0620    -0.0180 ns         1 4GB      -0.147000
     20 C4           1.1700     3.1700    -0.6910 c          1 4GB       0.606100
     21 O1           0.0950     3.2030    -1.2780 o          1 4GB      -0.576100
     22 C3           2.0880     4.3870    -0.6460 c3         1 4GB      -0.181100
     23 H1          -4.3780    -3.1670     0.1890 h1         1 4GB       0.046950
     24 H2          -4.9190    -2.1640     1.5150 h1         1 4GB       0.046950
     25 H3          -5.2670    -1.7220    -1.4540 hc         1 4GB       0.050700
     26 H4          -6.4650    -1.8220    -0.1890 hc         1 4GB       0.050700
     27 H5          -4.9480     0.5530    -1.1910 hc         1 4GB       0.038950
     28 H6          -6.5950     0.4140    -0.6420 hc         1 4GB       0.038950
     29 H7          -5.5810     1.8490     0.9110 hc         1 4GB       0.038950
     30 H8          -5.6810     0.3270     1.7830 hc         1 4GB       0.038950
     31 H9          -3.1650     1.3190     0.2930 hc         1 4GB       0.050700
     32 H10         -3.4830     1.6380     1.9850 hc         1 4GB       0.050700
     33 H11         -3.4250    -0.7120     2.5540 h1         1 4GB       0.046950
     34 H12         -1.9300    -0.2030     1.8180 h1         1 4GB       0.046950
     35 H13         -0.7010     0.9660    -0.9270 ha         1 4GB       0.171000
     36 H14         -0.0850    -2.9020     0.8870 ha         1 4GB       0.138000
     37 H15          2.0690    -2.1540     1.7960 ha         1 4GB       0.125000
     38 H16          4.9290     0.0710     2.5340 h2         1 4GB       0.083200
     39 H17          3.6890    -1.1630     2.8580 h2         1 4GB       0.083200
     40 H19          2.5690     2.2140     0.4150 hn         1 4GB       0.163000
     41 H20          3.0750     4.1040    -1.0310 hc         1 4GB       0.064033
     42 H21          1.6760     5.2480    -1.1840 hc         1 4GB       0.064033
     43 H22          2.3080     4.6300     0.4000 hc         1 4GB       0.064033
     44 S1           4.8560    -1.5620     0.7250 ss         1 4GB      -0.450000
     45 C2           5.4980    -0.2350    -0.3920 c3         1 4GB       0.074600
     46 C18          6.2270    -0.8560    -1.5940 c3         1 4GB      -0.083100
     47 H18          4.6600     0.3800    -0.7470 h1         1 4GB       0.059200
     48 H23          6.1890     0.4080     0.1690 h1         1 4GB       0.059200
     49 H24          5.5450    -1.4930    -2.1710 hc         1 4GB       0.048033
     50 H25          6.6070    -0.0700    -2.2570 hc         1 4GB       0.048033
     51 H26          7.0740    -1.4650    -1.2600 hc         1 4GB       0.048033
@<TRIPOS>BOND
     1     1     2 2   
     2     2     3 2   
     3     2     4 1   
     4     2    11 1   
     5     4     5 1   
     6     4    10 1   
     7     5     6 1   
     8     5    23 1   
     9     5    24 1   
    10     6     7 1   
    11     6    25 1   
    12     6    26 1   
    13     7     8 1   
    14     7    27 1   
    15     7    28 1   
    16     8     9 1   
    17     8    29 1   
    18     8    30 1   
    19     9    10 1   
    20     9    31 1   
    21     9    32 1   
    22    10    33 1   
    23    10    34 1   
    24    11    12 ar  
    25    11    13 ar  
    26    12    18 ar  
    27    12    35 1   
    28    13    14 ar  
    29    13    36 1   
    30    14    15 ar  
    31    14    37 1   
    32    15    16 1   
    33    15    18 ar  
    34    16    17 1   
    35    17    38 1   
    36    17    39 1   
    37    17    44 1   
    38    18    19 1   
    39    19    20 1   
    40    19    40 1   
    41    20    21 2   
    42    20    22 1   
    43    22    41 1   
    44    22    42 1   
    45    22    43 1   
    46    44    45 1   
    47    45    46 1   
    48    45    47 1   
    49    45    48 1   
    50    46    49 1   
    51    46    50 1   
    52    46    51 1   
@<TRIPOS>SUBSTRUCTURE
     1 4GB         1 TEMP              0 ****  ****    0 ROOT
