@<TRIPOS>MOLECULE
4GD
   38    41     1     0     0
SMALL
abcg2


@<TRIPOS>ATOM
      1 N01         -0.2850    -0.5210    -0.2500 ns         1 4GD      -0.411100
      2 C02          0.9910    -0.8570     0.1110 c          1 4GD       0.667300
      3 O03          1.2800    -1.9580     0.5400 o          1 4GD      -0.547100
      4 C04          1.9660     0.2180    -0.0460 cc         1 4GD      -0.370800
      5 C05          1.7700     1.5990    -0.2140 cc         1 4GD       0.417500
      6 N06          2.8970     2.2790    -0.2780 nd         1 4GD      -0.573100
      7 N07          3.8530     1.3530    -0.1550 na         1 4GD       0.117900
      8 C08          3.3560     0.0760    -0.0050 cd         1 4GD       0.432500
      9 N09          4.1650    -0.9790     0.1260 nd         1 4GD      -0.610000
     10 C10          5.4520    -0.7470     0.1130 cc         1 4GD       0.383900
     11 C11          6.0180     0.5400    -0.0300 cc         1 4GD      -0.219000
     12 C12          5.1800     1.6010    -0.1680 cd         1 4GD      -0.035000
     13 C13         -1.3840    -1.3430    -0.0890 cc         1 4GD       0.016600
     14 C14         -1.5310    -2.7090    -0.0520 cd         1 4GD      -0.226000
     15 C15         -2.9220    -2.9110     0.0670 cd         1 4GD       0.271300
     16 N16         -3.5710    -1.7670     0.0980 nc         1 4GD      -0.516800
     17 N17         -2.6300    -0.8110     0.0210 na         1 4GD       0.181000
     18 C18         -3.6410    -4.2120     0.1530 c3         1 4GD      -0.120400
     19 C19         -3.0010     0.5500     0.0370 ca         1 4GD       0.015800
     20 C20         -4.0400     0.9820    -0.7800 ca         1 4GD      -0.110500
     21 C21         -4.4170     2.3160    -0.7580 ca         1 4GD      -0.103500
     22 C22         -3.7520     3.2210     0.0600 ca         1 4GD      -0.110000
     23 C23         -2.7150     2.7830     0.8720 ca         1 4GD      -0.103500
     24 C24         -2.3440     1.4450     0.8750 ca         1 4GD      -0.110500
     25 H1          -0.4390     0.3560    -0.7260 hn         1 4GD       0.326500
     26 H2           0.8370     2.1410    -0.2760 h4         1 4GD       0.050800
     27 H3           6.1040    -1.6050     0.2200 h4         1 4GD       0.039100
     28 H4           7.0870     0.6800    -0.0340 ha         1 4GD       0.148000
     29 H5           5.4870     2.6290    -0.2890 h4         1 4GD       0.168000
     30 H6          -0.7630    -3.4580    -0.1200 ha         1 4GD       0.166000
     31 H7          -3.3010    -4.7900     1.0120 hc         1 4GD       0.047700
     32 H8          -4.7140    -4.0570     0.2490 hc         1 4GD       0.047700
     33 H9          -3.4640    -4.8200    -0.7350 hc         1 4GD       0.047700
     34 H10         -4.5470     0.2790    -1.4270 ha         1 4GD       0.134000
     35 H11         -5.2280     2.6510    -1.3910 ha         1 4GD       0.118500
     36 H12         -4.0440     4.2630     0.0680 ha         1 4GD       0.117000
     37 H13         -2.2020     3.4770     1.5240 ha         1 4GD       0.118500
     38 H14         -1.5630     1.1020     1.5410 ha         1 4GD       0.134000
@<TRIPOS>BOND
     1     1     2 1   
     2     1    13 1   
     3     1    25 1   
     4     2     3 2   
     5     2     4 1   
     6     4     5 1   
     7     4     8 2   
     8     5     6 2   
     9     5    26 1   
    10     6     7 1   
    11     7     8 1   
    12     7    12 1   
    13     8     9 1   
    14     9    10 2   
    15    10    11 1   
    16    10    27 1   
    17    11    12 2   
    18    11    28 1   
    19    12    29 1   
    20    13    14 2   
    21    13    17 1   
    22    14    15 1   
    23    14    30 1   
    24    15    16 2   
    25    15    18 1   
    26    16    17 1   
    27    17    19 1   
    28    18    31 1   
    29    18    32 1   
    30    18    33 1   
    31    19    20 ar  
    32    19    24 ar  
    33    20    21 ar  
    34    20    34 1   
    35    21    22 ar  
    36    21    35 1   
    37    22    23 ar  
    38    22    36 1   
    39    23    24 ar  
    40    23    37 1   
    41    24    38 1   
@<TRIPOS>SUBSTRUCTURE
     1 4GD         1 TEMP              0 ****  ****    0 ROOT
