@<TRIPOS>MOLECULE
4GD
   38    41     1     0     0
SMALL
No Charge or Current Charge


@<TRIPOS>ATOM
      1 N01         -0.2250    -0.5240    -0.0050 ns         1 4GD      -0.411100
      2 C02          1.0900    -0.9520     0.0250 c          1 4GD       0.667300
      3 O03          1.3960    -2.1300     0.1180 o          1 4GD      -0.547100
      4 C04          2.0620     0.1450    -0.0640 cc         1 4GD      -0.370800
      5 C05          1.7790     1.5340    -0.1720 cc         1 4GD       0.417500
      6 N06          2.8410     2.3340    -0.2380 nd         1 4GD      -0.573100
      7 N07          3.8370     1.3860    -0.1670 na         1 4GD       0.117900
      8 C08          3.4170     0.0700    -0.0630 cd         1 4GD       0.432500
      9 N09          4.1490    -1.0970     0.0260 nd         1 4GD      -0.610000
     10 C10          5.4430    -0.7730    -0.0030 cc         1 4GD       0.383900
     11 C11          5.9900     0.5630    -0.1090 cc         1 4GD      -0.219000
     12 C12          5.1910     1.6990    -0.1960 cd         1 4GD      -0.035000
     13 C13         -1.3960    -1.2770     0.0570 cc         1 4GD       0.016600
     14 C14         -1.5580    -2.6310     0.1280 cd         1 4GD      -0.226000
     15 C15         -2.9510    -2.8890     0.1490 cd         1 4GD       0.271300
     16 N16         -3.6860    -1.7920     0.0980 nc         1 4GD      -0.516800
     17 N17         -2.7110    -0.8220     0.0360 na         1 4GD       0.181000
     18 C18         -3.6040    -4.2400     0.2220 c3         1 4GD      -0.120400
     19 C19         -3.0640     0.5300     0.0130 ca         1 4GD       0.015800
     20 C20         -3.8640     1.0380    -1.0310 ca         1 4GD      -0.110500
     21 C21         -4.2080     2.4010    -1.0620 ca         1 4GD      -0.103500
     22 C22         -3.7560     3.2630    -0.0490 ca         1 4GD      -0.110000
     23 C23         -2.9630     2.7630     0.9970 ca         1 4GD      -0.103500
     24 C24         -2.6180     1.4000     1.0290 ca         1 4GD      -0.110500
     25 H1          -0.3340     0.4770    -0.0860 hn         1 4GD       0.326500
     26 H2           0.8030     1.9990    -0.2050 h4         1 4GD       0.050800
     27 H3           6.0980    -1.6320     0.0620 h4         1 4GD       0.039100
     28 H4           7.0710     0.6590    -0.1200 ha         1 4GD       0.148000
     29 H5           5.5070     2.7320    -0.2770 h4         1 4GD       0.168000
     30 H6          -0.7800    -3.3840     0.1600 ha         1 4GD       0.166000
     31 H7          -2.8540    -5.0390     0.2540 hc         1 4GD       0.047700
     32 H8          -4.2250    -4.3270     1.1210 hc         1 4GD       0.047700
     33 H9          -4.2440    -4.4150    -0.6500 hc         1 4GD       0.047700
     34 H10         -4.2140     0.3750    -1.8200 ha         1 4GD       0.134000
     35 H11         -4.8240     2.7880    -1.8720 ha         1 4GD       0.118500
     36 H12         -4.0230     4.3180    -0.0730 ha         1 4GD       0.117000
     37 H13         -2.6170     3.4300     1.7840 ha         1 4GD       0.118500
     38 H14         -2.0110     1.0190     1.8480 ha         1 4GD       0.134000
@<TRIPOS>BOND
     1     1     2 1   
     2     1    13 1   
     3     1    25 1   
     4     2     3 2   
     5     2     4 1   
     6     4     5 1   
     7     4     8 2   
     8     5     6 2   
     9     5    26 1   
    10     6     7 1   
    11     7     8 1   
    12     7    12 1   
    13     8     9 1   
    14     9    10 2   
    15    10    11 1   
    16    10    27 1   
    17    11    12 2   
    18    11    28 1   
    19    12    29 1   
    20    13    14 2   
    21    13    17 1   
    22    14    15 1   
    23    14    30 1   
    24    15    16 2   
    25    15    18 1   
    26    16    17 1   
    27    17    19 1   
    28    18    31 1   
    29    18    32 1   
    30    18    33 1   
    31    19    20 ar  
    32    19    24 ar  
    33    20    21 ar  
    34    20    34 1   
    35    21    22 ar  
    36    21    35 1   
    37    22    23 ar  
    38    22    36 1   
    39    23    24 ar  
    40    23    37 1   
    41    24    38 1   
@<TRIPOS>SUBSTRUCTURE
     1 4GD         1 TEMP              0 ****  ****    0 ROOT
