@<TRIPOS>MOLECULE
4GE
   41    43     1     0     0
SMALL
abcg2


@<TRIPOS>ATOM
      1 C5          38.8340   -18.4820    12.5040 ca         1 4GE      -0.118000
      2 C6          38.3440   -19.7700    12.3630 ca         1 4GE       0.124000
      3 CL1         38.3830   -20.8450    13.7460 cl         1 4GE      -0.240000
      4 C1          37.8310   -20.2330    11.1590 ca         1 4GE      -0.120000
      5 C2          37.8120   -19.3640    10.0720 ca         1 4GE      -0.109000
      6 C3          38.2930   -18.0690    10.1890 ca         1 4GE      -0.075000
      7 C4          38.8090   -17.6130    11.4080 ca         1 4GE      -0.070500
      8 C7          39.3160   -16.2460    11.5120 cc         1 4GE       0.405000
      9 N8          39.6760   -15.6490    12.6800 na         1 4GE      -0.288500
     10 N11         39.5050   -15.4130    10.4980 nd         1 4GE      -0.637000
     11 C10         40.0020   -14.2460    11.0250 cd         1 4GE       0.270500
     12 C13         40.2830   -13.0250    10.1810 c          1 4GE       0.618500
     13 O15         40.5510   -13.2170     8.9700 o          1 4GE      -0.704500
     14 O14         40.2190   -11.9180    10.7730 o          1 4GE      -0.704500
     15 C9          40.1250   -14.3830    12.3980 cc         1 4GE      -0.250600
     16 C16         40.4990   -13.4990    13.5280 c          1 4GE       0.667700
     17 O18         39.7300   -13.4320    14.4980 o          1 4GE      -0.657100
     18 N17         41.6740   -12.8390    13.4830 n          1 4GE      -0.375800
     19 C21         42.6950   -13.0080    12.4610 c3         1 4GE       0.096300
     20 C19         41.9980   -11.8880    14.5390 c3         1 4GE       0.137300
     21 C20         43.0320   -12.4050    15.5160 ca         1 4GE      -0.088300
     22 C22         43.0080   -13.7270    15.9570 ca         1 4GE      -0.100000
     23 C23         43.9460   -14.1830    16.8760 ca         1 4GE      -0.117500
     24 C24         44.9200   -13.3200    17.3700 ca         1 4GE      -0.123000
     25 C25         44.9510   -11.9990    16.9340 ca         1 4GE      -0.117500
     26 C26         44.0140   -11.5480    16.0090 ca         1 4GE      -0.100000
     27 H5          39.2400   -18.1750    13.4570 ha         1 4GE       0.120000
     28 H1          37.4570   -21.2430    11.0740 ha         1 4GE       0.118000
     29 H2          37.4140   -19.7070     9.1250 ha         1 4GE       0.112000
     30 H3          38.2710   -17.3980     9.3420 ha         1 4GE       0.154000
     31 H8          39.6140   -16.0360    13.6100 hn         1 4GE       0.343000
     32 H211        42.7320   -12.1350    11.8090 h1         1 4GE       0.048700
     33 H212        43.6630   -13.1330    12.9490 h1         1 4GE       0.048700
     34 H213        42.4920   -13.8900    11.8630 h1         1 4GE       0.048700
     35 H191        42.3640   -10.9720    14.0710 h1         1 4GE       0.070700
     36 H192        41.0750   -11.6520    15.0650 h1         1 4GE       0.070700
     37 H22         42.2550   -14.4060    15.5750 ha         1 4GE       0.117000
     38 H26         44.0490   -10.5210    15.6630 ha         1 4GE       0.117000
     39 H23         43.9170   -15.2140    17.2070 ha         1 4GE       0.103500
     40 H24         45.6520   -13.6750    18.0840 ha         1 4GE       0.101000
     41 H25         45.7100   -11.3220    17.3060 ha         1 4GE       0.103500
@<TRIPOS>BOND
     1     1     2 ar  
     2     1     7 ar  
     3     1    27 1   
     4     2     3 1   
     5     2     4 ar  
     6     4     5 ar  
     7     4    28 1   
     8     5     6 ar  
     9     5    29 1   
    10     6     7 ar  
    11     6    30 1   
    12     7     8 1   
    13     8     9 1   
    14     8    10 2   
    15     9    15 1   
    16     9    31 1   
    17    10    11 1   
    18    11    12 1   
    19    11    15 2   
    20    12    13 1   
    21    12    14 1   
    22    15    16 1   
    23    16    17 2   
    24    16    18 1   
    25    18    19 1   
    26    18    20 1   
    27    19    32 1   
    28    19    33 1   
    29    19    34 1   
    30    20    21 1   
    31    20    35 1   
    32    20    36 1   
    33    21    22 ar  
    34    21    26 ar  
    35    22    23 ar  
    36    22    37 1   
    37    23    24 ar  
    38    23    39 1   
    39    24    25 ar  
    40    24    40 1   
    41    25    26 ar  
    42    25    41 1   
    43    26    38 1   
@<TRIPOS>SUBSTRUCTURE
     1 4GE         1 TEMP              0 ****  ****    0 ROOT
