@<TRIPOS>MOLECULE
4GE
   41    43     1     0     0
SMALL
No Charge or Current Charge


@<TRIPOS>ATOM
      1 C5          38.5400   -18.5900    12.3290 ca         1 4GE      -0.118000
      2 C6          38.1260   -19.9030    12.0490 ca         1 4GE       0.124000
      3 Cl1         37.7920   -21.0150    13.3700 cl         1 4GE      -0.240000
      4 C1          37.9770   -20.3320    10.7220 ca         1 4GE      -0.120000
      5 C2          38.2440   -19.4430     9.6690 ca         1 4GE      -0.109000
      6 C3          38.6590   -18.1280     9.9450 ca         1 4GE      -0.075000
      7 C4          38.8140   -17.6820    11.2780 ca         1 4GE      -0.070500
      8 C7          39.2490   -16.3030    11.5550 cc         1 4GE       0.405000
      9 N8          39.4030   -15.7750    12.8090 na         1 4GE      -0.288500
     10 N11         39.5140   -15.3860    10.6440 nd         1 4GE      -0.637000
     11 C10         39.8700   -14.2150    11.3230 cd         1 4GE       0.270500
     12 C13         40.0390   -12.8270    10.6850 c          1 4GE       0.618500
     13 O15         40.0500   -12.7420     9.4610 o          1 4GE      -0.704500
     14 O14         40.0540   -11.8220    11.3840 o          1 4GE      -0.704500
     15 C9          39.9380   -14.5020    12.6840 cc         1 4GE      -0.250600
     16 C16         40.3970   -13.6110    13.7830 c          1 4GE       0.667700
     17 O18         39.8270   -13.6210    14.8690 o          1 4GE      -0.657100
     18 N17         41.5850   -12.8620    13.5910 n          1 4GE      -0.375800
     19 C21         42.5990   -13.2330    12.5710 c3         1 4GE       0.096300
     20 C19         41.9890   -11.8320    14.5760 c3         1 4GE       0.137300
     21 C20         43.0930   -12.2810    15.5300 ca         1 4GE      -0.088300
     22 C22         42.8010   -13.1500    16.6010 ca         1 4GE      -0.100000
     23 C23         43.8180   -13.5640    17.4780 ca         1 4GE      -0.117500
     24 C24         45.1350   -13.1120    17.2910 ca         1 4GE      -0.123000
     25 C25         45.4330   -12.2440    16.2280 ca         1 4GE      -0.117500
     26 C26         44.4160   -11.8290    15.3510 ca         1 4GE      -0.100000
     27 H5          38.6470   -18.2900    13.3680 ha         1 4GE       0.120000
     28 H1          37.6560   -21.3490    10.5120 ha         1 4GE       0.118000
     29 H2          38.1300   -19.7710     8.6380 ha         1 4GE       0.112000
     30 H3          38.8620   -17.4540     9.1150 ha         1 4GE       0.154000
     31 H8          39.2400   -16.2730    13.6740 hn         1 4GE       0.343000
     32 H211        42.5600   -12.5350    11.7260 h1         1 4GE       0.048700
     33 H212        43.6040   -13.1870    13.0070 h1         1 4GE       0.048700
     34 H213        42.4420   -14.2570    12.2090 h1         1 4GE       0.048700
     35 H191        42.3290   -10.9460    14.0240 h1         1 4GE       0.070700
     36 H192        41.1170   -11.5120    15.1620 h1         1 4GE       0.070700
     37 H22         41.7840   -13.5050    16.7540 ha         1 4GE       0.117000
     38 H26         44.6580   -11.1580    14.5290 ha         1 4GE       0.117000
     39 H23         43.5850   -14.2350    18.3010 ha         1 4GE       0.103500
     40 H24         45.9220   -13.4330    17.9700 ha         1 4GE       0.101000
     41 H25         46.4530   -11.8930    16.0820 ha         1 4GE       0.103500
@<TRIPOS>BOND
     1     1     2 ar  
     2     1     7 ar  
     3     1    27 1   
     4     2     3 1   
     5     2     4 ar  
     6     4     5 ar  
     7     4    28 1   
     8     5     6 ar  
     9     5    29 1   
    10     6     7 ar  
    11     6    30 1   
    12     7     8 1   
    13     8     9 1   
    14     8    10 2   
    15     9    15 1   
    16     9    31 1   
    17    10    11 1   
    18    11    12 1   
    19    11    15 2   
    20    12    13 1   
    21    12    14 1   
    22    15    16 1   
    23    16    17 2   
    24    16    18 1   
    25    18    19 1   
    26    18    20 1   
    27    19    32 1   
    28    19    33 1   
    29    19    34 1   
    30    20    21 1   
    31    20    35 1   
    32    20    36 1   
    33    21    22 ar  
    34    21    26 ar  
    35    22    23 ar  
    36    22    37 1   
    37    23    24 ar  
    38    23    39 1   
    39    24    25 ar  
    40    24    40 1   
    41    25    26 ar  
    42    25    41 1   
    43    26    38 1   
@<TRIPOS>SUBSTRUCTURE
     1 4GE         1 TEMP              0 ****  ****    0 ROOT
