@<TRIPOS>MOLECULE
4GF
   66    71     1     0     0
SMALL
abcg2


@<TRIPOS>ATOM
      1 N01          0.9940    -0.9220    -0.1250 ns         1 4GF      -0.405100
      2 C02          0.9180    -2.2870    -0.0430 c          1 4GF       0.667300
      3 O03         -0.1390    -2.8750     0.0920 o          1 4GF      -0.545100
      4 C04          2.2060    -2.9690    -0.1230 cc         1 4GF      -0.370800
      5 C05          3.5080    -2.4700     0.0500 cc         1 4GF       0.418500
      6 N06          4.4370    -3.3950    -0.0660 nd         1 4GF      -0.573100
      7 N07          3.7610    -4.5200    -0.3210 na         1 4GF       0.116900
      8 C08          2.3950    -4.3320    -0.3620 cd         1 4GF       0.433500
      9 N09          1.5580    -5.3420    -0.6130 nd         1 4GF      -0.610000
     10 C10          2.0900    -6.5200    -0.8130 cc         1 4GF       0.384900
     11 C11          3.4790    -6.7720    -0.7770 cc         1 4GF      -0.219000
     12 C12          4.3170    -5.7320    -0.5250 cd         1 4GF      -0.034000
     13 C13         -0.0830    -0.0670    -0.0260 cc         1 4GF       0.023600
     14 C14         -1.4450    -0.2550     0.0040 cd         1 4GF      -0.230000
     15 C15         -1.9770     1.0510     0.0870 cd         1 4GF       0.277300
     16 N16         -1.0280     1.9600     0.1100 nc         1 4GF      -0.503800
     17 N17          0.1280     1.2710     0.0500 na         1 4GF       0.175000
     18 C18         -3.4200     1.4310     0.1350 c6         1 4GF      -0.091000
     19 C19         -4.1770     0.9600    -1.1040 c6         1 4GF      -0.070900
     20 C20         -5.6550     1.3060    -1.0170 c6         1 4GF       0.166800
     21 N21         -6.2820     0.7370     0.1670 n3         1 4GF      -0.716600
     22 C22         -5.6060     1.2230     1.3610 c6         1 4GF       0.166800
     23 C23         -4.1260     0.8720     1.3670 c6         1 4GF      -0.070900
     24 C24         -7.7270     0.9880     0.2080 c3         1 4GF       0.186500
     25 C25         -8.4250     0.4710    -1.0500 c3         1 4GF      -0.090600
     26 C26         -8.3800     0.3260     1.4210 c3         1 4GF      -0.090600
     27 C27          1.3690     1.9350     0.0680 ca         1 4GF      -0.044200
     28 C28          1.7540     2.7360    -0.9960 ca         1 4GF       0.200000
     29 C29          2.9650     3.3940    -1.0100 ca         1 4GF      -0.154000
     30 C30          3.8490     3.2490     0.0580 ca         1 4GF      -0.002300
     31 C31          3.4730     2.4360     1.1300 ca         1 4GF      -0.132000
     32 C32          2.2470     1.7970     1.1390 ca         1 4GF      -0.083000
     33 F33          0.9290     2.8630    -2.0380 f          1 4GF      -0.154000
     34 C34          5.1460     3.9590     0.0190 cx         1 4GF      -0.100400
     35 C35          6.3820     3.3560     0.6330 cx         1 4GF      -0.116400
     36 C36          5.7470     4.5400     1.2720 cx         1 4GF      -0.116400
     37 H1           1.8780    -0.5070    -0.3790 hn         1 4GF       0.324500
     38 H2           3.8100    -1.4570     0.2770 h4         1 4GF       0.049800
     39 H3           1.4060    -7.3360    -1.0170 h4         1 4GF       0.039100
     40 H4           3.8700    -7.7630    -0.9490 ha         1 4GF       0.148000
     41 H5           5.3940    -5.7950    -0.4770 h4         1 4GF       0.167000
     42 H6          -1.9860    -1.1830    -0.0430 ha         1 4GF       0.172000
     43 H7          -3.4750     2.5250     0.1750 hc         1 4GF       0.061700
     44 H8          -3.7570     1.4140    -2.0040 hc         1 4GF       0.051950
     45 H9          -4.0690    -0.1240    -1.2140 hc         1 4GF       0.051950
     46 H10         -5.7720     2.4060    -1.0450 h1         1 4GF       0.028950
     47 H11         -6.1390     0.9190    -1.9120 h1         1 4GF       0.028950
     48 H13         -5.7200     2.3170     1.4690 h1         1 4GF       0.028950
     49 H14         -6.0560     0.7760     2.2470 h1         1 4GF       0.028950
     50 H15         -4.0120    -0.2160     1.3990 hc         1 4GF       0.051950
     51 H16         -3.6710     1.2670     2.2790 hc         1 4GF       0.051950
     52 H17         -7.9180     2.0750     0.2760 h1         1 4GF       0.015700
     53 H18         -8.1800    -0.5790    -1.2200 hc         1 4GF       0.037033
     54 H19         -9.5050     0.5480    -0.9270 hc         1 4GF       0.037033
     55 H20         -8.1690     1.0320    -1.9470 hc         1 4GF       0.037033
     56 H21         -9.4620     0.4440     1.3620 hc         1 4GF       0.037033
     57 H22         -8.1600    -0.7430     1.4400 hc         1 4GF       0.037033
     58 H23         -8.0690     0.7540     2.3720 hc         1 4GF       0.037033
     59 H24          3.2220     4.0150    -1.8600 ha         1 4GF       0.137000
     60 H25          4.1350     2.3050     1.9770 ha         1 4GF       0.123000
     61 H26          1.9590     1.1840     1.9840 ha         1 4GF       0.134000
     62 H27          5.3070     4.5330    -0.8860 hc         1 4GF       0.086700
     63 H28          6.2860     2.3920     1.1190 hc         1 4GF       0.075700
     64 H29          7.3140     3.4940     0.1010 hc         1 4GF       0.075700
     65 H30          6.2380     5.5010     1.1840 hc         1 4GF       0.075700
     66 H31          5.2080     4.3990     2.2010 hc         1 4GF       0.075700
@<TRIPOS>BOND
     1     1     2 1   
     2     1    13 1   
     3     1    37 1   
     4     2     3 2   
     5     2     4 1   
     6     4     5 1   
     7     4     8 2   
     8     5     6 2   
     9     5    38 1   
    10     6     7 1   
    11     7     8 1   
    12     7    12 1   
    13     8     9 1   
    14     9    10 2   
    15    10    11 1   
    16    10    39 1   
    17    11    12 2   
    18    11    40 1   
    19    12    41 1   
    20    13    14 2   
    21    13    17 1   
    22    14    15 1   
    23    14    42 1   
    24    15    16 2   
    25    15    18 1   
    26    16    17 1   
    27    17    27 1   
    28    18    19 1   
    29    18    23 1   
    30    18    43 1   
    31    19    20 1   
    32    19    44 1   
    33    19    45 1   
    34    20    21 1   
    35    20    46 1   
    36    20    47 1   
    37    21    22 1   
    38    21    24 1   
    39    22    23 1   
    40    22    48 1   
    41    22    49 1   
    42    23    50 1   
    43    23    51 1   
    44    24    25 1   
    45    24    26 1   
    46    24    52 1   
    47    25    53 1   
    48    25    54 1   
    49    25    55 1   
    50    26    56 1   
    51    26    57 1   
    52    26    58 1   
    53    27    28 ar  
    54    27    32 ar  
    55    28    29 ar  
    56    28    33 1   
    57    29    30 ar  
    58    29    59 1   
    59    30    31 ar  
    60    30    34 1   
    61    31    32 ar  
    62    31    60 1   
    63    32    61 1   
    64    34    35 1   
    65    34    36 1   
    66    34    62 1   
    67    35    36 1   
    68    35    63 1   
    69    35    64 1   
    70    36    65 1   
    71    36    66 1   
@<TRIPOS>SUBSTRUCTURE
     1 4GF         1 TEMP              0 ****  ****    0 ROOT
