@<TRIPOS>MOLECULE
4GF
   66    71     1     0     0
SMALL
No Charge or Current Charge


@<TRIPOS>ATOM
      1 N01          0.9660    -0.9330    -0.1980 ns         1 4GF      -0.405100
      2 C02          0.8290    -2.3080    -0.2620 c          1 4GF       0.667300
      3 O03         -0.2590    -2.8610    -0.2490 o          1 4GF      -0.545100
      4 C04          2.1110    -3.0190    -0.3440 cc         1 4GF      -0.370800
      5 C05          3.4100    -2.4440    -0.3600 cc         1 4GF       0.418500
      6 N06          4.4210    -3.3060    -0.4400 nd         1 4GF      -0.573100
      7 N07          3.7060    -4.4820    -0.4750 na         1 4GF       0.116900
      8 C08          2.3270    -4.3560    -0.4200 cd         1 4GF       0.433500
      9 N09          1.3410    -5.3230    -0.4350 nd         1 4GF      -0.610000
     10 C10          1.9350    -6.5140    -0.5170 cc         1 4GF       0.384900
     11 C11          3.3600    -6.7590    -0.5800 cc         1 4GF      -0.219000
     12 C12          4.3020    -5.7350    -0.5610 cd         1 4GF      -0.034000
     13 C13         -0.0220     0.0440    -0.1090 cc         1 4GF       0.023600
     14 C14         -1.3800    -0.0880    -0.0680 cd         1 4GF      -0.230000
     15 C15         -1.9280     1.2180     0.0330 cd         1 4GF       0.277300
     16 N16         -1.0060     2.1660     0.0620 nc         1 4GF      -0.503800
     17 N17          0.1430     1.4210    -0.0440 na         1 4GF       0.175000
     18 C18         -3.4120     1.5190     0.1110 c6         1 4GF      -0.091000
     19 C19         -4.1590     1.0280    -1.1510 c6         1 4GF      -0.070900
     20 C20         -5.6800     1.2970    -1.0430 c6         1 4GF       0.166800
     21 N21         -6.2900     0.6720     0.1750 n3         1 4GF      -0.716600
     22 C22         -5.5810     1.1470     1.4080 c6         1 4GF       0.166800
     23 C23         -4.0580     0.8740     1.3600 c6         1 4GF      -0.070900
     24 C24         -7.7800     0.8360     0.2450 c3         1 4GF       0.186500
     25 C25         -8.5150     0.3180    -1.0200 c3         1 4GF      -0.090600
     26 C26         -8.4140     0.1640     1.4930 c3         1 4GF      -0.090600
     27 C27          1.3880     2.0430     0.0020 ca         1 4GF      -0.044200
     28 C28          1.8820     2.7540    -1.1090 ca         1 4GF       0.200000
     29 C29          3.1470     3.3610    -1.0590 ca         1 4GF      -0.154000
     30 C30          3.9420     3.2700     0.1000 ca         1 4GF      -0.002300
     31 C31          3.4450     2.5550     1.2110 ca         1 4GF      -0.132000
     32 C32          2.1780     1.9460     1.1630 ca         1 4GF      -0.083000
     33 F33          1.1530     2.8480    -2.2450 f          1 4GF      -0.154000
     34 C34          5.2990     3.9310     0.1240 cx         1 4GF      -0.100400
     35 C35          6.4860     3.3140     0.8340 cx         1 4GF      -0.116400
     36 C36          5.8610     4.5790     1.3710 cx         1 4GF      -0.116400
     37 H1           1.9220    -0.6090    -0.2190 hn         1 4GF       0.324500
     38 H2           3.6580    -1.3910    -0.3140 h4         1 4GF       0.049800
     39 H3           1.2340    -7.3380    -0.5350 h4         1 4GF       0.039100
     40 H4           3.6860    -7.7920    -0.6450 ha         1 4GF       0.148000
     41 H5           5.3810    -5.8200    -0.6030 h4         1 4GF       0.167000
     42 H6          -1.9490    -1.0090    -0.1000 ha         1 4GF       0.172000
     43 H7          -3.5490     2.6080     0.1840 hc         1 4GF       0.061700
     44 H8          -3.7600     1.5300    -2.0430 hc         1 4GF       0.051950
     45 H9          -3.9950    -0.0480    -1.2970 hc         1 4GF       0.051950
     46 H10         -5.8530     2.3840    -1.0370 h1         1 4GF       0.028950
     47 H11         -6.1370     0.9030    -1.9600 h1         1 4GF       0.028950
     48 H13         -5.7490     2.2250     1.5480 h1         1 4GF       0.028950
     49 H14         -5.9650     0.6410     2.3040 h1         1 4GF       0.028950
     50 H15         -3.8880    -0.2110     1.3610 hc         1 4GF       0.051950
     51 H16         -3.5860     1.2650     2.2710 hc         1 4GF       0.051950
     52 H17         -8.0080     1.9090     0.3200 h1         1 4GF       0.015700
     53 H18         -8.2280    -0.7180    -1.2400 hc         1 4GF       0.037033
     54 H19         -9.6020     0.3480    -0.8810 hc         1 4GF       0.037033
     55 H20         -8.2950     0.9380    -1.8960 hc         1 4GF       0.037033
     56 H21         -9.5080     0.2060     1.4460 hc         1 4GF       0.037033
     57 H22         -8.1160    -0.8890     1.5610 hc         1 4GF       0.037033
     58 H23         -8.1210     0.6740     2.4170 hc         1 4GF       0.037033
     59 H24          3.5080     3.9020    -1.9300 ha         1 4GF       0.137000
     60 H25          4.0350     2.4660     2.1190 ha         1 4GF       0.123000
     61 H26          1.8090     1.4000     2.0290 ha         1 4GF       0.134000
     62 H27          5.5230     4.4390    -0.8110 hc         1 4GF       0.086700
     63 H28          6.3330     2.3940     1.3920 hc         1 4GF       0.075700
     64 H29          7.4580     3.3940     0.3540 hc         1 4GF       0.075700
     65 H30          6.4150     5.5080     1.2510 hc         1 4GF       0.075700
     66 H31          5.2880     4.5130     2.2920 hc         1 4GF       0.075700
@<TRIPOS>BOND
     1     1     2 1   
     2     1    13 1   
     3     1    37 1   
     4     2     3 2   
     5     2     4 1   
     6     4     5 1   
     7     4     8 2   
     8     5     6 2   
     9     5    38 1   
    10     6     7 1   
    11     7     8 1   
    12     7    12 1   
    13     8     9 1   
    14     9    10 2   
    15    10    11 1   
    16    10    39 1   
    17    11    12 2   
    18    11    40 1   
    19    12    41 1   
    20    13    14 2   
    21    13    17 1   
    22    14    15 1   
    23    14    42 1   
    24    15    16 2   
    25    15    18 1   
    26    16    17 1   
    27    17    27 1   
    28    18    19 1   
    29    18    23 1   
    30    18    43 1   
    31    19    20 1   
    32    19    44 1   
    33    19    45 1   
    34    20    21 1   
    35    20    46 1   
    36    20    47 1   
    37    21    22 1   
    38    21    24 1   
    39    22    23 1   
    40    22    48 1   
    41    22    49 1   
    42    23    50 1   
    43    23    51 1   
    44    24    25 1   
    45    24    26 1   
    46    24    52 1   
    47    25    53 1   
    48    25    54 1   
    49    25    55 1   
    50    26    56 1   
    51    26    57 1   
    52    26    58 1   
    53    27    28 ar  
    54    27    32 ar  
    55    28    29 ar  
    56    28    33 1   
    57    29    30 ar  
    58    29    59 1   
    59    30    31 ar  
    60    30    34 1   
    61    31    32 ar  
    62    31    60 1   
    63    32    61 1   
    64    34    35 1   
    65    34    36 1   
    66    34    62 1   
    67    35    36 1   
    68    35    63 1   
    69    35    64 1   
    70    36    65 1   
    71    36    66 1   
@<TRIPOS>SUBSTRUCTURE
     1 4GF         1 TEMP              0 ****  ****    0 ROOT
