@<TRIPOS>MOLECULE
4GG
   39    40     1     0     0
SMALL
No Charge or Current Charge


@<TRIPOS>ATOM
      1 O            1.8220     0.3280     1.7270 o          1 4GG      -0.584100
      2 C12          2.1830     0.7810     0.6460 c          1 4GG       0.616100
      3 C13          3.3520     0.1470    -0.1510 c3         1 4GG      -0.045400
      4 N1           1.5460     1.9140     0.0880 n          1 4GG      -0.399800
      5 C1           1.9160     2.4360    -1.2470 c3         1 4GG       0.087300
      6 C2           0.4160     2.5680     0.7800 c3         1 4GG       0.182300
      7 C3          -0.8910     2.0200     0.2800 cc         1 4GG      -0.247300
      8 C11         -1.4500     0.7910     0.4860 cd         1 4GG      -0.121000
      9 N3          -2.6420     0.8650    -0.2310 na         1 4GG       0.227000
     10 N2          -2.8880     2.0710    -0.8590 nd         1 4GG      -0.519800
     11 C4          -1.7990     2.7370    -0.5310 cc         1 4GG       0.250900
     12 C5          -3.4790    -0.2520    -0.1910 ca         1 4GG       0.015800
     13 C10         -4.7960    -0.1310     0.2950 ca         1 4GG      -0.112500
     14 C9          -5.6430    -1.2530     0.3370 ca         1 4GG      -0.097000
     15 C8          -5.1780    -2.5010    -0.1090 ca         1 4GG      -0.113000
     16 C7          -3.8680    -2.6290    -0.6000 ca         1 4GG      -0.097000
     17 C6          -3.0200    -1.5080    -0.6420 ca         1 4GG      -0.112500
     18 H1           2.9600    -0.1740    -1.1240 h1         1 4GG       0.073700
     19 H2           4.1030     0.9270    -0.3230 h1         1 4GG       0.073700
     20 H4           1.7860     1.6520    -2.0040 h1         1 4GG       0.039367
     21 H5           1.2780     3.2880    -1.5170 h1         1 4GG       0.039367
     22 H6           2.9620     2.7690    -1.2420 h1         1 4GG       0.039367
     23 H7           0.4900     2.4180     1.8650 h1         1 4GG       0.065700
     24 H8           0.4580     3.6510     0.6010 h1         1 4GG       0.065700
     25 H9          -1.1220    -0.0780     1.0440 h4         1 4GG       0.173000
     26 H10         -1.6850     3.7500    -0.8930 h4         1 4GG       0.035100
     27 H11         -5.1610     0.8340     0.6420 ha         1 4GG       0.134000
     28 H12         -6.6590    -1.1540     0.7150 ha         1 4GG       0.118500
     29 H13         -5.8340    -3.3690    -0.0770 ha         1 4GG       0.118000
     30 H14         -3.5090    -3.5950    -0.9480 ha         1 4GG       0.118500
     31 H15         -2.0080    -1.6130    -1.0280 ha         1 4GG       0.134000
     32 S1           4.1740    -1.3080     0.6760 ss         1 4GG      -0.358000
     33 C15          5.4500    -1.7150    -0.5950 c3         1 4GG       0.042600
     34 C16          6.2930    -2.9200    -0.1430 c3         1 4GG      -0.078100
     35 H3           4.9520    -1.9470    -1.5450 h1         1 4GG       0.052700
     36 H16          6.1010    -0.8440    -0.7450 h1         1 4GG       0.052700
     37 H17          7.0500    -3.1600    -0.8990 hc         1 4GG       0.044367
     38 H18          6.8050    -2.7000     0.8010 hc         1 4GG       0.044367
     39 H19          5.6580    -3.8020     0.0020 hc         1 4GG       0.044367
@<TRIPOS>BOND
     1     1     2 2   
     2     2     3 1   
     3     2     4 1   
     4     3    18 1   
     5     3    19 1   
     6     3    32 1   
     7     4     5 1   
     8     4     6 1   
     9     5    20 1   
    10     5    21 1   
    11     5    22 1   
    12     6     7 1   
    13     6    23 1   
    14     6    24 1   
    15     7     8 2   
    16     7    11 1   
    17     8     9 1   
    18     8    25 1   
    19     9    10 1   
    20     9    12 1   
    21    10    11 2   
    22    11    26 1   
    23    12    13 ar  
    24    12    17 ar  
    25    13    14 ar  
    26    13    27 1   
    27    14    15 ar  
    28    14    28 1   
    29    15    16 ar  
    30    15    29 1   
    31    16    17 ar  
    32    16    30 1   
    33    17    31 1   
    34    32    33 1   
    35    33    34 1   
    36    33    35 1   
    37    33    36 1   
    38    34    37 1   
    39    34    38 1   
    40    34    39 1   
@<TRIPOS>SUBSTRUCTURE
     1 4GG         1 TEMP              0 ****  ****    0 ROOT
