@<TRIPOS>MOLECULE
4GG
   39    40     1     0     0
SMALL
abcg2


@<TRIPOS>ATOM
      1 O            1.8350     0.1500     1.5200 o          1 4GG      -0.584100
      2 C12          2.2320     0.8160     0.5750 c          1 4GG       0.616100
      3 C13          3.3790     0.3220    -0.2830 c3         1 4GG      -0.045400
      4 N1           1.6980     2.0100     0.2470 n          1 4GG      -0.399800
      5 C1           2.0020     2.6950    -0.9950 c3         1 4GG       0.087300
      6 C2           0.5080     2.4530     0.9630 c3         1 4GG       0.182300
      7 C3          -0.7520     1.8890     0.3900 cc         1 4GG      -0.247300
      8 C11         -1.3710     0.7070     0.7140 cd         1 4GG      -0.121000
      9 N3          -2.4600     0.6000    -0.0820 na         1 4GG       0.227000
     10 N2          -2.5860     1.6460    -0.9020 nd         1 4GG      -0.519800
     11 C4          -1.5640     2.4280    -0.6290 cc         1 4GG       0.250900
     12 C5          -3.4130    -0.4370    -0.0970 ca         1 4GG       0.015800
     13 C10         -4.7060    -0.1800    -0.5410 ca         1 4GG      -0.112500
     14 C9          -5.6420    -1.2030    -0.5490 ca         1 4GG      -0.097000
     15 C8          -5.3040    -2.4750    -0.1080 ca         1 4GG      -0.113000
     16 C7          -4.0120    -2.7230     0.3340 ca         1 4GG      -0.097000
     17 C6          -3.0610    -1.7120     0.3330 ca         1 4GG      -0.112500
     18 H1           3.0470     0.1800    -1.3150 h1         1 4GG       0.073700
     19 H2           4.1890     1.0560    -0.3050 h1         1 4GG       0.073700
     20 H4           1.4580     2.2760    -1.8450 h1         1 4GG       0.039367
     21 H5           1.7250     3.7420    -0.8970 h1         1 4GG       0.039367
     22 H6           3.0660     2.6640    -1.2180 h1         1 4GG       0.039367
     23 H7           0.6050     2.1840     2.0120 h1         1 4GG       0.065700
     24 H8           0.4840     3.5420     0.9160 h1         1 4GG       0.065700
     25 H9          -1.1270    -0.0320     1.4580 h4         1 4GG       0.173000
     26 H10         -1.4320     3.3570    -1.1630 h4         1 4GG       0.035100
     27 H11         -4.9790     0.8110    -0.8750 ha         1 4GG       0.134000
     28 H12         -6.6460    -0.9970    -0.8950 ha         1 4GG       0.118500
     29 H13         -6.0400    -3.2680    -0.1110 ha         1 4GG       0.118000
     30 H14         -3.7300    -3.7110     0.6710 ha         1 4GG       0.118500
     31 H15         -2.0510    -1.9320     0.6510 ha         1 4GG       0.134000
     32 S1           3.9820    -1.2420     0.3910 ss         1 4GG      -0.358000
     33 C15          5.3120    -1.5530    -0.8070 c3         1 4GG       0.042600
     34 C16          6.0040    -2.8620    -0.4670 c3         1 4GG      -0.078100
     35 H3           4.8880    -1.5920    -1.8120 h1         1 4GG       0.052700
     36 H16          6.0240    -0.7260    -0.7780 h1         1 4GG       0.052700
     37 H17          6.8010    -3.0580    -1.1840 hc         1 4GG       0.044367
     38 H18          6.4500    -2.8310     0.5270 hc         1 4GG       0.044367
     39 H19          5.3100    -3.7020    -0.5020 hc         1 4GG       0.044367
@<TRIPOS>BOND
     1     1     2 2   
     2     2     3 1   
     3     2     4 1   
     4     3    18 1   
     5     3    19 1   
     6     3    32 1   
     7     4     5 1   
     8     4     6 1   
     9     5    20 1   
    10     5    21 1   
    11     5    22 1   
    12     6     7 1   
    13     6    23 1   
    14     6    24 1   
    15     7     8 2   
    16     7    11 1   
    17     8     9 1   
    18     8    25 1   
    19     9    10 1   
    20     9    12 1   
    21    10    11 2   
    22    11    26 1   
    23    12    13 ar  
    24    12    17 ar  
    25    13    14 ar  
    26    13    27 1   
    27    14    15 ar  
    28    14    28 1   
    29    15    16 ar  
    30    15    29 1   
    31    16    17 ar  
    32    16    30 1   
    33    17    31 1   
    34    32    33 1   
    35    33    34 1   
    36    33    35 1   
    37    33    36 1   
    38    34    37 1   
    39    34    38 1   
    40    34    39 1   
@<TRIPOS>SUBSTRUCTURE
     1 4GG         1 TEMP              0 ****  ****    0 ROOT
