@<TRIPOS>MOLECULE
4GH
  157   157     1     0     0
SMALL
No Charge or Current Charge


@<TRIPOS>ATOM
      1 C1          -5.5840     4.5380     0.8990 c3         1 4GH       0.142600
      2 C2          -6.1240     3.1710     1.3920 c3         1 4GH       0.080700
      3 N2          -5.0660     2.1530     1.2510 ns         1 4GH      -0.506900
      4 C3          -7.4510     2.7430     0.6910 c3         1 4GH       0.162300
      5 O3          -8.4730     3.7210     0.9480 oh         1 4GH      -0.644000
      6 C4          -7.9670     1.3490     1.1450 c3         1 4GH      -0.110400
      7 C5          -9.2420     0.8700     0.4080 c3         1 4GH      -0.072400
      8 C6          -9.6890    -0.5440     0.8380 c3         1 4GH      -0.076400
      9 C7         -10.9580    -1.0270     0.1030 c3         1 4GH      -0.074400
     10 C8         -11.4030    -2.4430     0.5310 c3         1 4GH      -0.074400
     11 C9         -12.6700    -2.9280    -0.2060 c3         1 4GH      -0.074400
     12 C10        -13.1130    -4.3440     0.2200 c3         1 4GH      -0.074400
     13 C11        -14.3800    -4.8300    -0.5180 c3         1 4GH      -0.074400
     14 C12        -14.8210    -6.2480    -0.0930 c3         1 4GH      -0.074400
     15 C13        -16.0870    -6.7330    -0.8320 c3         1 4GH      -0.074400
     16 C14        -16.5260    -8.1530    -0.4100 c3         1 4GH      -0.074400
     17 C15        -17.7910    -8.6390    -1.1500 c3         1 4GH      -0.074400
     18 C16        -18.2300   -10.0590    -0.7280 c3         1 4GH      -0.075400
     19 C17        -19.4950   -10.5460    -1.4680 c3         1 4GH      -0.074400
     20 C18        -19.9320   -11.9620    -1.0490 c3         1 4GH      -0.088100
     21 C1A         -4.4370     5.5180    -1.0320 c6         1 4GH       0.345300
     22 O1A         -5.1310     4.3890    -0.4630 os         1 4GH      -0.474000
     23 C2A         -4.1560     5.2840    -2.5540 c6         1 4GH       0.162300
     24 O2A         -5.3810     4.9460    -3.2530 oh         1 4GH      -0.683000
     25 C3A         -3.0730     4.1650    -2.7310 c6         1 4GH       0.180300
     26 O3A         -2.6690     4.0350    -4.1050 oh         1 4GH      -0.641000
     27 C4A         -1.8260     4.4620    -1.8640 c6         1 4GH      -0.154400
     28 C5M         -2.2380     4.6770    -0.3890 c6         1 4GH       0.175300
     29 C6A         -1.0170     5.0300     0.5240 c3         1 4GH       0.165600
     30 O6A         -3.2060     5.7510    -0.3110 os         1 4GH      -0.459000
     31 CAA         -4.4080     1.5370     2.2890 c          1 4GH       0.607100
     32 OAA         -4.7120     1.7110     3.4600 o          1 4GH      -0.603100
     33 CAB         -3.2800     0.5930     1.8580 c3         1 4GH      -0.151400
     34 CAC         -1.8930     1.2290     2.1100 c3         1 4GH      -0.064400
     35 CAD         -0.7260     0.3630     1.5890 c3         1 4GH      -0.075400
     36 CAE          0.6560     1.0140     1.8180 c3         1 4GH      -0.077400
     37 CAF          1.8230     0.1500     1.2930 c3         1 4GH      -0.073400
     38 CAG          3.2050     0.8020     1.5160 c3         1 4GH      -0.075400
     39 CAH          4.3720    -0.0630     0.9930 c3         1 4GH      -0.073400
     40 CAI          5.7550     0.5870     1.2170 c3         1 4GH      -0.074400
     41 CAJ          6.9220    -0.2830     0.6980 c3         1 4GH      -0.073400
     42 CAK          8.3050     0.3650     0.9220 c3         1 4GH      -0.074400
     43 CAL          9.4710    -0.5080     0.4060 c3         1 4GH      -0.074400
     44 CAM         10.8560     0.1380     0.6290 c3         1 4GH      -0.074400
     45 CAN         12.0200    -0.7360     0.1150 c3         1 4GH      -0.074400
     46 CAO         13.4050    -0.0920     0.3380 c3         1 4GH      -0.074400
     47 CAP         14.5680    -0.9680    -0.1770 c3         1 4GH      -0.074400
     48 CAQ         15.9550    -0.3240     0.0450 c3         1 4GH      -0.074400
     49 CAR         17.1170    -1.2020    -0.4690 c3         1 4GH      -0.074400
     50 CAS         18.5040    -0.5600    -0.2460 c3         1 4GH      -0.074400
     51 CAT         19.6650    -1.4390    -0.7590 c3         1 4GH      -0.074400
     52 CAU         21.0530    -0.8000    -0.5350 c3         1 4GH      -0.074400
     53 CAV         22.2140    -1.6800    -1.0470 c3         1 4GH      -0.074400
     54 CAW         23.6020    -1.0420    -0.8210 c3         1 4GH      -0.074400
     55 CAX         24.7630    -1.9240    -1.3320 c3         1 4GH      -0.075400
     56 CAY         26.1510    -1.2870    -1.1060 c3         1 4GH      -0.075400
     57 CAZ         27.3090    -2.1660    -1.6160 c3         1 4GH      -0.088100
     58 H1          -6.3640     5.3080     0.9740 h1         1 4GH       0.051200
     59 H1A         -4.7540     4.8370     1.5530 h1         1 4GH       0.051200
     60 H2          -6.3500     3.2860     2.4600 h1         1 4GH       0.081700
     61 HN2         -4.7260     1.9560     0.3180 hn         1 4GH       0.311500
     62 H3          -7.2520     2.6920    -0.3890 h1         1 4GH       0.084700
     63 HO3         -8.8660     3.5040     1.8210 ho         1 4GH       0.436000
     64 H4          -7.1810     0.6040     0.9750 hc         1 4GH       0.046700
     65 H4A         -8.1540     1.3630     2.2260 hc         1 4GH       0.046700
     66 H5         -10.0640     1.5730     0.5930 hc         1 4GH       0.044700
     67 H5A         -9.0550     0.8740    -0.6730 hc         1 4GH       0.044700
     68 H6          -8.8730    -1.2530     0.6510 hc         1 4GH       0.036200
     69 H6A         -9.8760    -0.5490     1.9200 hc         1 4GH       0.036200
     70 H7         -11.7760    -0.3210     0.2930 hc         1 4GH       0.038700
     71 H7A        -10.7730    -1.0200    -0.9780 hc         1 4GH       0.038700
     72 H8         -10.5840    -3.1500     0.3430 hc         1 4GH       0.036700
     73 H8A        -11.5900    -2.4500     1.6120 hc         1 4GH       0.036700
     74 H9         -13.4890    -2.2220    -0.0170 hc         1 4GH       0.037700
     75 H9A        -12.4830    -2.9190    -1.2870 hc         1 4GH       0.037700
     76 H10        -12.2940    -5.0500     0.0320 hc         1 4GH       0.036700
     77 H10A       -13.3010    -4.3530     1.3020 hc         1 4GH       0.036700
     78 H11        -15.1990    -4.1250    -0.3280 hc         1 4GH       0.037200
     79 H11A       -14.1920    -4.8200    -1.5990 hc         1 4GH       0.037200
     80 H12        -14.0010    -6.9520    -0.2830 hc         1 4GH       0.036700
     81 H12A       -15.0080    -6.2580     0.9880 hc         1 4GH       0.036700
     82 H13        -16.9070    -6.0310    -0.6410 hc         1 4GH       0.037200
     83 H13A       -15.8990    -6.7210    -1.9130 hc         1 4GH       0.037200
     84 H14        -15.7050    -8.8550    -0.6000 hc         1 4GH       0.036700
     85 H14A       -16.7140    -8.1650     0.6710 hc         1 4GH       0.036700
     86 H15        -18.6130    -7.9370    -0.9590 hc         1 4GH       0.036700
     87 H15A       -17.6030    -8.6270    -2.2310 hc         1 4GH       0.036700
     88 H16        -17.4080   -10.7610    -0.9190 hc         1 4GH       0.036700
     89 H16A       -18.4170   -10.0720     0.3530 hc         1 4GH       0.036700
     90 H17        -20.3190    -9.8470    -1.2770 hc         1 4GH       0.036700
     91 H17A       -19.3100   -10.5350    -2.5500 hc         1 4GH       0.036700
     92 H18        -20.1580   -11.9980     0.0240 hc         1 4GH       0.031367
     93 H18A       -20.8320   -12.2630    -1.5990 hc         1 4GH       0.031367
     94 H18B       -19.1410   -12.6920    -1.2610 hc         1 4GH       0.031367
     95 H1AA        -5.0760     6.4090    -0.9360 h2         1 4GH       0.067700
     96 H2A         -3.7460     6.2200    -2.9630 h1         1 4GH       0.052700
     97 HO2A        -5.8600     4.3260    -2.6550 ho         1 4GH       0.504000
     98 H3A         -3.5070     3.2150    -2.3820 h1         1 4GH       0.055700
     99 HO3A        -2.0770     3.2530    -4.1540 ho         1 4GH       0.440000
    100 H4AA        -1.1130     3.6290    -1.9310 hc         1 4GH       0.056200
    101 H4AB        -1.3090     5.3560    -2.2390 hc         1 4GH       0.056200
    102 HO5A        -0.5720     5.6010     2.3540 ho         1 4GH       0.505000
    103 H5M         -2.6940     3.7550     0.0010 h1         1 4GH       0.046700
    104 H6AA        -0.5280     5.9230     0.1100 h1         1 4GH       0.025200
    105 H6AB        -0.2950     4.2050     0.4610 h1         1 4GH       0.025200
    106 HAB         -3.3500    -0.3340     2.4390 hc         1 4GH       0.053700
    107 HABA        -3.3690     0.3720     0.7880 hc         1 4GH       0.053700
    108 HAC         -1.8540     2.2110     1.6230 hc         1 4GH       0.057200
    109 HACA        -1.7640     1.4050     3.1860 hc         1 4GH       0.057200
    110 HAD         -0.7520    -0.6140     2.0870 hc         1 4GH       0.031700
    111 HADA        -0.8640     0.1810     0.5160 hc         1 4GH       0.031700
    112 HAE          0.6800     1.9920     1.3210 hc         1 4GH       0.040700
    113 HAEA         0.7960     1.1960     2.8910 hc         1 4GH       0.040700
    114 HAF          1.8010    -0.8270     1.7910 hc         1 4GH       0.035700
    115 HAFA         1.6810    -0.0330     0.2200 hc         1 4GH       0.035700
    116 HAG          3.2280     1.7790     1.0160 hc         1 4GH       0.038700
    117 HAGA         3.3470     0.9880     2.5880 hc         1 4GH       0.038700
    118 HAH          4.3490    -1.0400     1.4940 hc         1 4GH       0.036700
    119 HAHA         4.2310    -0.2500    -0.0790 hc         1 4GH       0.036700
    120 HAI          5.7810     1.5610     0.7130 hc         1 4GH       0.037200
    121 HAIA         5.8960     0.7760     2.2880 hc         1 4GH       0.037200
    122 HAJ          6.8950    -1.2580     1.2010 hc         1 4GH       0.037200
    123 HAJA         6.7810    -0.4720    -0.3740 hc         1 4GH       0.037200
    124 HAK          8.3330     1.3390     0.4160 hc         1 4GH       0.037200
    125 HAKA         8.4450     0.5560     1.9930 hc         1 4GH       0.037200
    126 HAL          9.4420    -1.4810     0.9110 hc         1 4GH       0.036700
    127 HALA         9.3310    -0.6990    -0.6650 hc         1 4GH       0.036700
    128 HAM         10.8850     1.1120     0.1230 hc         1 4GH       0.037700
    129 HAMA        10.9950     0.3300     1.7010 hc         1 4GH       0.037700
    130 HAN         11.9900    -1.7090     0.6210 hc         1 4GH       0.036700
    131 HANA        11.8800    -0.9280    -0.9570 hc         1 4GH       0.036700
    132 HAO         13.4360     0.8810    -0.1690 hc         1 4GH       0.037700
    133 HAOA        13.5450     0.1000     1.4090 hc         1 4GH       0.037700
    134 HAP         14.5380    -1.9410     0.3290 hc         1 4GH       0.036700
    135 HAPA        14.4280    -1.1590    -1.2490 hc         1 4GH       0.036700
    136 HAQ         15.9860     0.6480    -0.4620 hc         1 4GH       0.037200
    137 HAQA        16.0950    -0.1320     1.1160 hc         1 4GH       0.037200
    138 HAR         17.0850    -2.1750     0.0380 hc         1 4GH       0.036700
    139 HARA        16.9770    -1.3940    -1.5400 hc         1 4GH       0.036700
    140 HAS         18.5370     0.4120    -0.7540 hc         1 4GH       0.037200
    141 HASA        18.6440    -0.3670     0.8250 hc         1 4GH       0.037200
    142 HAT         19.6310    -2.4120    -0.2520 hc         1 4GH       0.036700
    143 HATA        19.5260    -1.6310    -1.8300 hc         1 4GH       0.036700
    144 HAU         21.0880     0.1730    -1.0420 hc         1 4GH       0.037200
    145 HAUA        21.1920    -0.6070     0.5370 hc         1 4GH       0.037200
    146 HAV         22.1780    -2.6530    -0.5400 hc         1 4GH       0.036700
    147 HAVA        22.0750    -1.8720    -2.1180 hc         1 4GH       0.036700
    148 HAW         23.6380    -0.0700    -1.3280 hc         1 4GH       0.036700
    149 HAWA        23.7400    -0.8500     0.2500 hc         1 4GH       0.036700
    150 HAX         24.7260    -2.8970    -0.8260 hc         1 4GH       0.036700
    151 HAXA        24.6250    -2.1150    -2.4040 hc         1 4GH       0.036700
    152 HAY         26.1920    -0.3140    -1.6120 hc         1 4GH       0.036700
    153 HAYA        26.2940    -1.0960    -0.0350 hc         1 4GH       0.036700
    154 HAZ         28.2720    -1.6730    -1.4330 hc         1 4GH       0.031367
    155 HAZA        27.3160    -3.1350    -1.1030 hc         1 4GH       0.031367
    156 HAZB        27.2140    -2.3450    -2.6940 hc         1 4GH       0.031367
    157 O5A         -1.3770     5.2610     1.9000 oh         1 4GH      -0.706000
@<TRIPOS>BOND
     1     1     2 1   
     2     1    22 1   
     3     1    58 1   
     4     1    59 1   
     5     2     3 1   
     6     2     4 1   
     7     2    60 1   
     8     3    31 1   
     9     3    61 1   
    10     4     5 1   
    11     4     6 1   
    12     4    62 1   
    13     5    63 1   
    14     6     7 1   
    15     6    64 1   
    16     6    65 1   
    17     7     8 1   
    18     7    66 1   
    19     7    67 1   
    20     8     9 1   
    21     8    68 1   
    22     8    69 1   
    23     9    10 1   
    24     9    70 1   
    25     9    71 1   
    26    10    11 1   
    27    10    72 1   
    28    10    73 1   
    29    11    12 1   
    30    11    74 1   
    31    11    75 1   
    32    12    13 1   
    33    12    76 1   
    34    12    77 1   
    35    13    14 1   
    36    13    78 1   
    37    13    79 1   
    38    14    15 1   
    39    14    80 1   
    40    14    81 1   
    41    15    16 1   
    42    15    82 1   
    43    15    83 1   
    44    16    17 1   
    45    16    84 1   
    46    16    85 1   
    47    17    18 1   
    48    17    86 1   
    49    17    87 1   
    50    18    19 1   
    51    18    88 1   
    52    18    89 1   
    53    19    20 1   
    54    19    90 1   
    55    19    91 1   
    56    20    92 1   
    57    20    93 1   
    58    20    94 1   
    59    21    22 1   
    60    21    23 1   
    61    21    30 1   
    62    21    95 1   
    63    23    24 1   
    64    23    25 1   
    65    23    96 1   
    66    24    97 1   
    67    25    26 1   
    68    25    27 1   
    69    25    98 1   
    70    26    99 1   
    71    27    28 1   
    72    27   100 1   
    73    27   101 1   
    74    28    29 1   
    75    28    30 1   
    76    28   103 1   
    77    29   104 1   
    78    29   105 1   
    79    29   157 1   
    80    31    32 2   
    81    31    33 1   
    82    33    34 1   
    83    33   106 1   
    84    33   107 1   
    85    34    35 1   
    86    34   108 1   
    87    34   109 1   
    88    35    36 1   
    89    35   110 1   
    90    35   111 1   
    91    36    37 1   
    92    36   112 1   
    93    36   113 1   
    94    37    38 1   
    95    37   114 1   
    96    37   115 1   
    97    38    39 1   
    98    38   116 1   
    99    38   117 1   
   100    39    40 1   
   101    39   118 1   
   102    39   119 1   
   103    40    41 1   
   104    40   120 1   
   105    40   121 1   
   106    41    42 1   
   107    41   122 1   
   108    41   123 1   
   109    42    43 1   
   110    42   124 1   
   111    42   125 1   
   112    43    44 1   
   113    43   126 1   
   114    43   127 1   
   115    44    45 1   
   116    44   128 1   
   117    44   129 1   
   118    45    46 1   
   119    45   130 1   
   120    45   131 1   
   121    46    47 1   
   122    46   132 1   
   123    46   133 1   
   124    47    48 1   
   125    47   134 1   
   126    47   135 1   
   127    48    49 1   
   128    48   136 1   
   129    48   137 1   
   130    49    50 1   
   131    49   138 1   
   132    49   139 1   
   133    50    51 1   
   134    50   140 1   
   135    50   141 1   
   136    51    52 1   
   137    51   142 1   
   138    51   143 1   
   139    52    53 1   
   140    52   144 1   
   141    52   145 1   
   142    53    54 1   
   143    53   146 1   
   144    53   147 1   
   145    54    55 1   
   146    54   148 1   
   147    54   149 1   
   148    55    56 1   
   149    55   150 1   
   150    55   151 1   
   151    56    57 1   
   152    56   152 1   
   153    56   153 1   
   154    57   154 1   
   155    57   155 1   
   156    57   156 1   
   157   102   157 1   
@<TRIPOS>SUBSTRUCTURE
     1 4GH         1 TEMP              0 ****  ****    0 ROOT
