@<TRIPOS>MOLECULE
4GH
  157   157     1     0     0
SMALL
bcc


@<TRIPOS>ATOM
      1 C1          -5.8790     5.1020     1.3090 c3         1 4GH       0.119400
      2 C2          -6.1930     3.6400     1.5950 c3         1 4GH       0.080700
      3 N2          -5.1610     2.7880     1.0440 ns         1 4GH      -0.573900
      4 C3          -7.5730     3.1950     1.0790 c3         1 4GH       0.139100
      5 O3          -8.5720     4.0830     1.5270 oh         1 4GH      -0.581800
      6 C4          -7.8790     1.7490     1.4570 c3         1 4GH      -0.110400
      7 C5          -9.2310     1.2560     0.9530 c3         1 4GH      -0.072400
      8 C6          -9.4260    -0.2360     1.1910 c3         1 4GH      -0.076400
      9 C7         -10.7730    -0.7570     0.7050 c3         1 4GH      -0.074400
     10 C8         -10.9220    -2.2640     0.8690 c3         1 4GH      -0.074400
     11 C9         -12.2640    -2.7990     0.3830 c3         1 4GH      -0.074400
     12 C10        -12.3840    -4.3130     0.5050 c3         1 4GH      -0.074400
     13 C11        -13.7220    -4.8550     0.0160 c3         1 4GH      -0.074400
     14 C12        -13.8270    -6.3720     0.1170 c3         1 4GH      -0.074400
     15 C13        -15.1620    -6.9190    -0.3740 c3         1 4GH      -0.074400
     16 C14        -15.2580    -8.4370    -0.2830 c3         1 4GH      -0.074400
     17 C15        -16.5920    -8.9880    -0.7740 c3         1 4GH      -0.074400
     18 C16        -16.6830   -10.5060    -0.6890 c3         1 4GH      -0.075400
     19 C17        -18.0160   -11.0600    -1.1750 c3         1 4GH      -0.074400
     20 C18        -18.0920   -12.5780    -1.0870 c3         1 4GH      -0.088100
     21 C1A         -5.1890     6.4090    -0.5340 c6         1 4GH       0.298900
     22 O1A         -5.9170     5.3130    -0.0870 os         1 4GH      -0.427600
     23 C2A         -5.6750     6.7770    -1.9440 c6         1 4GH       0.139100
     24 O2A         -7.0610     6.9820    -1.9830 oh         1 4GH      -0.560800
     25 C3A         -5.3000     5.6800    -2.9250 c6         1 4GH       0.157100
     26 O3A         -5.6780     6.0990    -4.2170 oh         1 4GH      -0.578800
     27 C4A         -3.8000     5.4260    -2.8240 c6         1 4GH      -0.154400
     28 C5M         -3.3870     5.1260    -1.3910 c6         1 4GH       0.152100
     29 C6A         -1.8870     4.9930    -1.2670 c3         1 4GH       0.142400
     30 O6A         -3.8100     6.1680    -0.5230 os         1 4GH      -0.412600
     31 CAA         -4.0520     2.4200     1.7180 c          1 4GH       0.674100
     32 OAA         -3.8860     2.6720     2.9020 o          1 4GH      -0.603100
     33 CAB         -3.0370     1.6590     0.8910 c3         1 4GH      -0.151400
     34 CAC         -1.6940     1.4880     1.5820 c3         1 4GH      -0.064400
     35 CAD         -0.6240     0.9520     0.6390 c3         1 4GH      -0.075400
     36 CAE          0.7150     0.7490     1.3370 c3         1 4GH      -0.077400
     37 CAF          1.8430     0.3290     0.4030 c3         1 4GH      -0.073400
     38 CAG          3.1670     0.1430     1.1340 c3         1 4GH      -0.075400
     39 CAH          4.3450    -0.1570     0.2160 c3         1 4GH      -0.073400
     40 CAI          5.6550    -0.3310     0.9760 c3         1 4GH      -0.074400
     41 CAJ          6.8670    -0.5080     0.0700 c3         1 4GH      -0.073400
     42 CAK          8.1720    -0.6750     0.8400 c3         1 4GH      -0.074400
     43 CAL          9.3960    -0.7770    -0.0610 c3         1 4GH      -0.074400
     44 CAM         10.7000    -0.9370     0.7090 c3         1 4GH      -0.074400
     45 CAN         11.9270    -1.0010    -0.1930 c3         1 4GH      -0.074400
     46 CAO         13.2340    -1.1550     0.5750 c3         1 4GH      -0.074400
     47 CAP         14.4590    -1.1970    -0.3300 c3         1 4GH      -0.074400
     48 CAQ         15.7690    -1.3450     0.4330 c3         1 4GH      -0.074400
     49 CAR         16.9930    -1.3760    -0.4750 c3         1 4GH      -0.074400
     50 CAS         18.3060    -1.5190     0.2850 c3         1 4GH      -0.074400
     51 CAT         19.5260    -1.5430    -0.6270 c3         1 4GH      -0.074400
     52 CAU         20.8420    -1.6790     0.1290 c3         1 4GH      -0.074400
     53 CAV         22.0610    -1.6990    -0.7860 c3         1 4GH      -0.074400
     54 CAW         23.3790    -1.8240    -0.0340 c3         1 4GH      -0.074400
     55 CAX         24.5950    -1.8420    -0.9530 c3         1 4GH      -0.075400
     56 CAY         25.9180    -1.9560    -0.2060 c3         1 4GH      -0.075400
     57 CAZ         27.1210    -1.9710    -1.1390 c3         1 4GH      -0.088100
     58 H1          -6.5980     5.7560     1.8150 h1         1 4GH       0.051200
     59 H1A         -4.8870     5.3220     1.7170 h1         1 4GH       0.051200
     60 H2          -6.1780     3.5170     2.6810 h1         1 4GH       0.081700
     61 HN2         -5.1940     2.6060     0.0530 hn         1 4GH       0.311500
     62 H3          -7.5810     3.2770    -0.0140 h1         1 4GH       0.084700
     63 HO3         -8.7010     3.9440     2.4720 ho         1 4GH       0.397000
     64 H4          -7.0930     1.1070     1.0500 hc         1 4GH       0.046700
     65 H4A         -7.8250     1.6380     2.5470 hc         1 4GH       0.046700
     66 H5         -10.0400     1.8110     1.4360 hc         1 4GH       0.044700
     67 H5A         -9.3160     1.4630    -0.1200 hc         1 4GH       0.044700
     68 H6          -8.6230    -0.7860     0.6870 hc         1 4GH       0.036200
     69 H6A         -9.3170    -0.4540     2.2590 hc         1 4GH       0.036200
     70 H7         -11.5790    -0.2490     1.2450 hc         1 4GH       0.038700
     71 H7A        -10.9030    -0.4950    -0.3510 hc         1 4GH       0.038700
     72 H8         -10.1150    -2.7660     0.3240 hc         1 4GH       0.036700
     73 H8A        -10.7850    -2.5320     1.9230 hc         1 4GH       0.036700
     74 H9         -13.0730    -2.3220     0.9470 hc         1 4GH       0.037700
     75 H9A        -12.4120    -2.5080    -0.6630 hc         1 4GH       0.037700
     76 H10        -11.5740    -4.7860    -0.0600 hc         1 4GH       0.036700
     77 H10A       -12.2340    -4.6070     1.5500 hc         1 4GH       0.036700
     78 H11        -14.5340    -4.3950     0.5900 hc         1 4GH       0.037200
     79 H11A       -13.8770    -4.5500    -1.0250 hc         1 4GH       0.037200
     80 H12        -13.0140    -6.8300    -0.4570 hc         1 4GH       0.036700
     81 H12A       -13.6710    -6.6780     1.1580 hc         1 4GH       0.036700
     82 H13        -15.9750    -6.4680     0.2050 hc         1 4GH       0.037200
     83 H13A       -15.3210    -6.6070    -1.4120 hc         1 4GH       0.037200
     84 H14        -14.4450    -8.8870    -0.8630 hc         1 4GH       0.036700
     85 H14A       -15.0970    -8.7490     0.7550 hc         1 4GH       0.036700
     86 H15        -17.4060    -8.5410    -0.1910 hc         1 4GH       0.036700
     87 H15A       -16.7550    -8.6720    -1.8110 hc         1 4GH       0.036700
     88 H16        -15.8700   -10.9510    -1.2730 hc         1 4GH       0.036700
     89 H16A       -16.5170   -10.8220     0.3470 hc         1 4GH       0.036700
     90 H17        -18.8270   -10.6160    -0.5900 hc         1 4GH       0.036700
     91 H17A       -18.1830   -10.7460    -2.2100 hc         1 4GH       0.036700
     92 H18        -17.9540   -12.9220    -0.0600 hc         1 4GH       0.031367
     93 H18A       -19.0550   -12.9540    -1.4340 hc         1 4GH       0.031367
     94 H18B       -17.3160   -13.0460    -1.6960 hc         1 4GH       0.031367
     95 H1AA        -5.3310     7.2680     0.1370 h2         1 4GH       0.067700
     96 H2A         -5.1290     7.6880    -2.2330 h1         1 4GH       0.052700
     97 HO2A        -7.2750     7.7330    -1.4210 ho         1 4GH       0.405000
     98 H3A         -5.8340     4.7600    -2.6450 h1         1 4GH       0.055700
     99 HO3A        -5.4540     5.3960    -4.8340 ho         1 4GH       0.401000
    100 H4AA        -3.5230     4.5830    -3.4640 hc         1 4GH       0.056200
    101 H4AB        -3.2580     6.3040    -3.1910 hc         1 4GH       0.056200
    102 HO5A        -0.6150     4.4290     0.0780 ho         1 4GH       0.406000
    103 H5M         -3.8410     4.1770    -1.0830 h1         1 4GH       0.046700
    104 H6AA        -1.4110     5.9410    -1.5580 h1         1 4GH       0.025200
    105 H6AB        -1.5630     4.2370    -1.9940 h1         1 4GH       0.025200
    106 HAB         -3.4610     0.6830     0.6310 hc         1 4GH       0.053700
    107 HABA        -2.8960     2.1830    -0.0580 hc         1 4GH       0.053700
    108 HAC         -1.3630     2.4510     1.9780 hc         1 4GH       0.057200
    109 HACA        -1.7950     0.8190     2.4400 hc         1 4GH       0.057200
    110 HAD         -0.9540     0.0080     0.1940 hc         1 4GH       0.031700
    111 HADA        -0.4990     1.6560    -0.1920 hc         1 4GH       0.031700
    112 HAE          1.0010     1.6800     1.8390 hc         1 4GH       0.040700
    113 HAEA         0.6010     0.0020     2.1310 hc         1 4GH       0.040700
    114 HAF          1.5720    -0.6010    -0.1090 hc         1 4GH       0.035700
    115 HAFA         1.9630     1.0850    -0.3810 hc         1 4GH       0.035700
    116 HAG          3.3880     1.0500     1.7070 hc         1 4GH       0.038700
    117 HAGA         3.0630    -0.6600     1.8730 hc         1 4GH       0.038700
    118 HAH          4.1400    -1.0600    -0.3690 hc         1 4GH       0.036700
    119 HAHA         4.4530     0.6560    -0.5100 hc         1 4GH       0.036700
    120 HAI          5.8150     0.5410     1.6200 hc         1 4GH       0.037200
    121 HAIA         5.5730    -1.1900     1.6500 hc         1 4GH       0.037200
    122 HAJ          6.7170    -1.3750    -0.5830 hc         1 4GH       0.037200
    123 HAJA         6.9490     0.3590    -0.5950 hc         1 4GH       0.037200
    124 HAK          8.2990     0.1720     1.5240 hc         1 4GH       0.037200
    125 HAKA         8.1090    -1.5670     1.4740 hc         1 4GH       0.037200
    126 HAL          9.2730    -1.6220    -0.7490 hc         1 4GH       0.036700
    127 HALA         9.4550     0.1180    -0.6910 hc         1 4GH       0.036700
    128 HAM         10.8120    -0.1040     1.4120 hc         1 4GH       0.037700
    129 HAMA        10.6520    -1.8440     1.3230 hc         1 4GH       0.037700
    130 HAN         11.8170    -1.8340    -0.8960 hc         1 4GH       0.036700
    131 HANA        11.9710    -0.0930    -0.8050 hc         1 4GH       0.036700
    132 HAO         13.3380    -0.3270     1.2850 hc         1 4GH       0.037700
    133 HAOA        13.1960    -2.0680     1.1790 hc         1 4GH       0.037700
    134 HAP         14.3570    -2.0250    -1.0400 hc         1 4GH       0.036700
    135 HAPA        14.4930    -0.2830    -0.9350 hc         1 4GH       0.036700
    136 HAQ         15.8700    -0.5200     1.1470 hc         1 4GH       0.037200
    137 HAQA        15.7390    -2.2620     1.0340 hc         1 4GH       0.037200
    138 HAR         16.8930    -2.2030    -1.1880 hc         1 4GH       0.036700
    139 HARA        17.0190    -0.4600    -1.0760 hc         1 4GH       0.036700
    140 HAS         18.4040    -0.6930     0.9990 hc         1 4GH       0.037200
    141 HASA        18.2820    -2.4360     0.8850 hc         1 4GH       0.037200
    142 HAT         19.4290    -2.3700    -1.3390 hc         1 4GH       0.036700
    143 HATA        19.5470    -0.6280    -1.2290 hc         1 4GH       0.036700
    144 HAU         20.9390    -0.8520     0.8420 hc         1 4GH       0.037200
    145 HAUA        20.8250    -2.5950     0.7300 hc         1 4GH       0.037200
    146 HAV         21.9660    -2.5290    -1.4960 hc         1 4GH       0.036700
    147 HAVA        22.0730    -0.7850    -1.3910 hc         1 4GH       0.036700
    148 HAW         23.4740    -0.9940     0.6750 hc         1 4GH       0.036700
    149 HAWA        23.3680    -2.7380     0.5710 hc         1 4GH       0.036700
    150 HAX         24.5040    -2.6760    -1.6580 hc         1 4GH       0.036700
    151 HAXA        24.6010    -0.9310    -1.5630 hc         1 4GH       0.036700
    152 HAY         26.0090    -1.1210     0.4970 hc         1 4GH       0.036700
    153 HAYA        25.9130    -2.8650     0.4040 hc         1 4GH       0.036700
    154 HAZ         28.0590    -2.0450    -0.5880 hc         1 4GH       0.031367
    155 HAZA        27.0730    -2.8170    -1.8270 hc         1 4GH       0.031367
    156 HAZB        27.1620    -1.0600    -1.7400 hc         1 4GH       0.031367
    157 O5A         -1.5550     4.6250     0.0500 oh         1 4GH      -0.583800
@<TRIPOS>BOND
     1     1     2 1   
     2     1    22 1   
     3     1    58 1   
     4     1    59 1   
     5     2     3 1   
     6     2     4 1   
     7     2    60 1   
     8     3    31 1   
     9     3    61 1   
    10     4     5 1   
    11     4     6 1   
    12     4    62 1   
    13     5    63 1   
    14     6     7 1   
    15     6    64 1   
    16     6    65 1   
    17     7     8 1   
    18     7    66 1   
    19     7    67 1   
    20     8     9 1   
    21     8    68 1   
    22     8    69 1   
    23     9    10 1   
    24     9    70 1   
    25     9    71 1   
    26    10    11 1   
    27    10    72 1   
    28    10    73 1   
    29    11    12 1   
    30    11    74 1   
    31    11    75 1   
    32    12    13 1   
    33    12    76 1   
    34    12    77 1   
    35    13    14 1   
    36    13    78 1   
    37    13    79 1   
    38    14    15 1   
    39    14    80 1   
    40    14    81 1   
    41    15    16 1   
    42    15    82 1   
    43    15    83 1   
    44    16    17 1   
    45    16    84 1   
    46    16    85 1   
    47    17    18 1   
    48    17    86 1   
    49    17    87 1   
    50    18    19 1   
    51    18    88 1   
    52    18    89 1   
    53    19    20 1   
    54    19    90 1   
    55    19    91 1   
    56    20    92 1   
    57    20    93 1   
    58    20    94 1   
    59    21    22 1   
    60    21    23 1   
    61    21    30 1   
    62    21    95 1   
    63    23    24 1   
    64    23    25 1   
    65    23    96 1   
    66    24    97 1   
    67    25    26 1   
    68    25    27 1   
    69    25    98 1   
    70    26    99 1   
    71    27    28 1   
    72    27   100 1   
    73    27   101 1   
    74    28    29 1   
    75    28    30 1   
    76    28   103 1   
    77    29   104 1   
    78    29   105 1   
    79    29   157 1   
    80    31    32 2   
    81    31    33 1   
    82    33    34 1   
    83    33   106 1   
    84    33   107 1   
    85    34    35 1   
    86    34   108 1   
    87    34   109 1   
    88    35    36 1   
    89    35   110 1   
    90    35   111 1   
    91    36    37 1   
    92    36   112 1   
    93    36   113 1   
    94    37    38 1   
    95    37   114 1   
    96    37   115 1   
    97    38    39 1   
    98    38   116 1   
    99    38   117 1   
   100    39    40 1   
   101    39   118 1   
   102    39   119 1   
   103    40    41 1   
   104    40   120 1   
   105    40   121 1   
   106    41    42 1   
   107    41   122 1   
   108    41   123 1   
   109    42    43 1   
   110    42   124 1   
   111    42   125 1   
   112    43    44 1   
   113    43   126 1   
   114    43   127 1   
   115    44    45 1   
   116    44   128 1   
   117    44   129 1   
   118    45    46 1   
   119    45   130 1   
   120    45   131 1   
   121    46    47 1   
   122    46   132 1   
   123    46   133 1   
   124    47    48 1   
   125    47   134 1   
   126    47   135 1   
   127    48    49 1   
   128    48   136 1   
   129    48   137 1   
   130    49    50 1   
   131    49   138 1   
   132    49   139 1   
   133    50    51 1   
   134    50   140 1   
   135    50   141 1   
   136    51    52 1   
   137    51   142 1   
   138    51   143 1   
   139    52    53 1   
   140    52   144 1   
   141    52   145 1   
   142    53    54 1   
   143    53   146 1   
   144    53   147 1   
   145    54    55 1   
   146    54   148 1   
   147    54   149 1   
   148    55    56 1   
   149    55   150 1   
   150    55   151 1   
   151    56    57 1   
   152    56   152 1   
   153    56   153 1   
   154    57   154 1   
   155    57   155 1   
   156    57   156 1   
   157   102   157 1   
@<TRIPOS>SUBSTRUCTURE
     1 4GH         1 TEMP              0 ****  ****    0 ROOT
