@<TRIPOS>MOLECULE
4GI
   53    55     1     0     0
SMALL
No Charge or Current Charge


@<TRIPOS>ATOM
      1 C           -1.1290     2.8730    -0.3620 ca         1 4GI      -0.137000
      2 N           -2.3390    -1.8880     0.8180 n3         1 4GI      -0.743500
      3 O           -4.3180    -0.7760    -0.3160 o          1 4GI      -0.537500
      4 S           -3.2690    -0.4600     0.6590 sy         1 4GI       1.151600
      5 C1          -0.4290     2.4520    -1.5060 ca         1 4GI       0.000000
      6 O1          -3.6060     0.0090     2.0070 o          1 4GI      -0.537500
      7 C2          -0.5890     1.1330    -1.9920 ca         1 4GI      -0.196200
      8 C3          -1.4590     0.2470    -1.3150 ca         1 4GI       0.053000
      9 C4          -2.1520     0.6760    -0.1670 ca         1 4GI      -0.251500
     10 C5          -1.9910     1.9900     0.3100 ca         1 4GI       0.041000
     11 C6          -3.1700    -3.1190     0.9520 c6         1 4GI       0.210800
     12 C7          -2.3280    -4.4030     0.7760 c6         1 4GI      -0.081400
     13 C8          -1.1470    -4.4330     1.7650 c6         1 4GI      -0.073400
     14 C9          -0.3240    -3.1360     1.6260 c6         1 4GI      -0.075400
     15 C10         -1.2100    -1.8700     1.8380 c6         1 4GI       0.163500
     16 C11         -0.3030    -0.5890     1.9170 c          1 4GI       0.593100
     17 C12          1.6010     0.5640     0.9870 c3         1 4GI       0.167600
     18 C13          2.6270     0.3330    -0.1360 c3         1 4GI      -0.083400
     19 C14          3.5350     1.5560    -0.3840 c3         1 4GI      -0.025100
     20 H1          -1.0030     3.8880     0.0060 ha         1 4GI       0.132000
     21 H2           0.2330     3.1570    -2.0070 ha         1 4GI       0.153000
     22 H4          -1.5990    -0.7740    -1.6710 ha         1 4GI       0.156000
     23 H5          -2.5260     2.3310     1.1940 ha         1 4GI       0.146000
     24 H6          -3.6650    -3.1410     1.9340 h1         1 4GI       0.060700
     25 H7          -3.9650    -3.1490     0.1940 h1         1 4GI       0.060700
     26 H8          -2.9640    -5.2870     0.9210 hc         1 4GI       0.057700
     27 H9          -1.9520    -4.4520    -0.2550 hc         1 4GI       0.057700
     28 H10         -1.5200    -4.5340     2.7940 hc         1 4GI       0.049200
     29 H11         -0.5120    -5.3080     1.5700 hc         1 4GI       0.049200
     30 H12          0.4950    -3.1450     2.3580 hc         1 4GI       0.061700
     31 H13          0.1430    -3.1040     0.6320 hc         1 4GI       0.061700
     32 H14         -1.6440    -1.9370     2.8470 h1         1 4GI       0.079700
     33 H15          1.0120     1.4620     0.7630 h1         1 4GI       0.050700
     34 H16          2.1200     0.7190     1.9430 h1         1 4GI       0.050700
     35 H17          3.2450    -0.5370     0.1170 hc         1 4GI       0.061200
     36 H18          2.0950     0.0900    -1.0630 hc         1 4GI       0.061200
     37 H19          2.9090     2.4330    -0.5880 hc         1 4GI       0.050700
     38 H20          4.0910     1.7830     0.5350 hc         1 4GI       0.050700
     39 C15          4.5060     1.3230    -1.5340 ca         1 4GI      -0.134300
     40 C16          4.2670     1.8810    -2.8030 ca         1 4GI      -0.071000
     41 C17          5.1940     1.6290    -3.8260 ca         1 4GI      -0.162000
     42 C18          6.3210     0.8360    -3.5530 ca         1 4GI       0.335900
     43 N19          6.5620     0.2950    -2.3360 nb         1 4GI      -0.662000
     44 C20          5.6650     0.5390    -1.3500 ca         1 4GI       0.340900
     45 H21          3.3870     2.4930    -2.9920 ha         1 4GI       0.117000
     46 H22          5.0470     2.0390    -4.8210 ha         1 4GI       0.124000
     47 H23          7.0540     0.6260    -4.3310 h4         1 4GI       0.020100
     48 H25          5.8830     0.0900    -0.3820 h4         1 4GI       0.018100
     49 N1           0.1500     0.6790    -3.2090 no         1 4GI       0.697200
     50 O4           0.8850     1.4920    -3.7830 o          1 4GI      -0.398000
     51 O5           0.0080    -0.4930    -3.5770 o          1 4GI      -0.398000
     52 O2          -0.5930     0.3840     2.6030 o          1 4GI      -0.488000
     53 O3           0.7580    -0.5970     1.0420 os         1 4GI      -0.426100
@<TRIPOS>BOND
     1     1     5 ar  
     2     1    10 ar  
     3     1    20 1   
     4     2     4 1   
     5     2    11 1   
     6     2    15 1   
     7     3     4 2   
     8     4     6 2   
     9     4     9 1   
    10     5     7 ar  
    11     5    21 1   
    12     7     8 ar  
    13     7    49 1   
    14     8     9 ar  
    15     8    22 1   
    16     9    10 ar  
    17    10    23 1   
    18    11    12 1   
    19    11    24 1   
    20    11    25 1   
    21    12    13 1   
    22    12    26 1   
    23    12    27 1   
    24    13    14 1   
    25    13    28 1   
    26    13    29 1   
    27    14    15 1   
    28    14    30 1   
    29    14    31 1   
    30    15    16 1   
    31    15    32 1   
    32    16    52 2   
    33    16    53 1   
    34    17    18 1   
    35    17    33 1   
    36    17    34 1   
    37    17    53 1   
    38    18    19 1   
    39    18    35 1   
    40    18    36 1   
    41    19    37 1   
    42    19    38 1   
    43    19    39 1   
    44    39    40 ar  
    45    39    44 ar  
    46    40    41 ar  
    47    40    45 1   
    48    41    42 ar  
    49    41    46 1   
    50    42    43 ar  
    51    42    47 1   
    52    43    44 ar  
    53    44    48 1   
    54    49    50 1   
    55    49    51 1   
@<TRIPOS>SUBSTRUCTURE
     1 4GI         1 TEMP              0 ****  ****    0 ROOT
