@<TRIPOS>MOLECULE
4GI
   53    55     1     0     0
SMALL
abcg2


@<TRIPOS>ATOM
      1 C           -2.6600     3.2360    -0.0170 ca         1 4GI      -0.137000
      2 N           -1.8550    -1.6450     0.5410 n3         1 4GI      -0.743500
      3 O           -2.9480    -0.7270     2.6310 o          1 4GI      -0.537500
      4 S           -1.9640    -0.3840     1.6170 sy         1 4GI       1.151600
      5 C1          -3.8490     3.0400    -0.6970 ca         1 4GI       0.000000
      6 O1          -0.6270     0.0190     2.0300 o          1 4GI      -0.537500
      7 C2          -4.4310     1.7800    -0.6730 ca         1 4GI      -0.196200
      8 C3          -3.8610     0.7210     0.0100 ca         1 4GI       0.053000
      9 C4          -2.6670     0.9460     0.6720 ca         1 4GI      -0.251500
     10 C5          -2.0590     2.1900     0.6700 ca         1 4GI       0.041000
     11 C6          -2.6690    -2.8360     0.8510 c6         1 4GI       0.210800
     12 C7          -2.8000    -3.7200    -0.3740 c6         1 4GI      -0.081400
     13 C8          -1.4310    -4.1190    -0.8960 c6         1 4GI      -0.073400
     14 C9          -0.6250    -2.8690    -1.2020 c6         1 4GI      -0.075400
     15 C10         -0.5170    -1.9440     0.0190 c6         1 4GI       0.163500
     16 C11          0.1850    -0.6890    -0.4660 c          1 4GI       0.593100
     17 C12          2.3040     0.2990    -0.7740 c3         1 4GI       0.167600
     18 C13          3.7410    -0.0120    -0.4160 c3         1 4GI      -0.083400
     19 C14          4.6760     1.0790    -0.9430 c3         1 4GI      -0.025100
     20 H1          -2.1940     4.2110    -0.0250 ha         1 4GI       0.132000
     21 H2          -4.3060     3.8570    -1.2360 ha         1 4GI       0.153000
     22 H4          -4.3310    -0.2530     0.0110 ha         1 4GI       0.156000
     23 H5          -1.1250     2.3540     1.1880 ha         1 4GI       0.146000
     24 H6          -2.2170    -3.4050     1.6700 h1         1 4GI       0.060700
     25 H7          -3.6560    -2.5170     1.1750 h1         1 4GI       0.060700
     26 H8          -3.3860    -4.5970    -0.0930 hc         1 4GI       0.057700
     27 H9          -3.3580    -3.1910    -1.1510 hc         1 4GI       0.057700
     28 H10         -0.9100    -4.7280    -0.1510 hc         1 4GI       0.049200
     29 H11         -1.5200    -4.7270    -1.7980 hc         1 4GI       0.049200
     30 H12          0.3860    -3.1280    -1.5210 hc         1 4GI       0.061700
     31 H13         -1.0990    -2.3210    -2.0200 hc         1 4GI       0.061700
     32 H14          0.0900    -2.4400     0.7850 h1         1 4GI       0.079700
     33 H15          2.1810     0.3720    -1.8570 h1         1 4GI       0.050700
     34 H16          1.9900     1.2480    -0.3330 h1         1 4GI       0.050700
     35 H17          3.8470    -0.0920     0.6690 hc         1 4GI       0.061200
     36 H18          4.0290    -0.9770    -0.8410 hc         1 4GI       0.061200
     37 H19          4.5620     1.1650    -2.0270 hc         1 4GI       0.050700
     38 H20          4.3880     2.0440    -0.5190 hc         1 4GI       0.050700
     39 C15          6.1090     0.7890    -0.6070 ca         1 4GI      -0.134300
     40 C16          6.8850    -0.0710    -1.3770 ca         1 4GI      -0.071000
     41 C17          8.1910    -0.3350    -0.9980 ca         1 4GI      -0.162000
     42 C18          8.6830     0.2730     0.1480 ca         1 4GI       0.335900
     43 N19          7.9600     1.0980     0.8950 nb         1 4GI      -0.662000
     44 C20          6.7100     1.3410     0.5200 ca         1 4GI       0.340900
     45 H21          6.4720    -0.5280    -2.2690 ha         1 4GI       0.117000
     46 H22          8.8200    -0.9980    -1.5760 ha         1 4GI       0.124000
     47 H23          9.7020     0.0890     0.4710 h4         1 4GI       0.020100
     48 H25          6.1420     2.0220     1.1480 h4         1 4GI       0.018100
     49 N1          -5.6830     1.5590    -1.3860 no         1 4GI       0.697200
     50 O4          -6.1740     2.4970    -1.9660 o          1 4GI      -0.398000
     51 O5          -6.1610     0.4510    -1.3580 o          1 4GI      -0.398000
     52 O2          -0.3700     0.2100    -1.0420 o          1 4GI      -0.488000
     53 O3           1.4860    -0.7640    -0.2630 os         1 4GI      -0.426100
@<TRIPOS>BOND
     1     1     5 ar  
     2     1    10 ar  
     3     1    20 1   
     4     2     4 1   
     5     2    11 1   
     6     2    15 1   
     7     3     4 2   
     8     4     6 2   
     9     4     9 1   
    10     5     7 ar  
    11     5    21 1   
    12     7     8 ar  
    13     7    49 1   
    14     8     9 ar  
    15     8    22 1   
    16     9    10 ar  
    17    10    23 1   
    18    11    12 1   
    19    11    24 1   
    20    11    25 1   
    21    12    13 1   
    22    12    26 1   
    23    12    27 1   
    24    13    14 1   
    25    13    28 1   
    26    13    29 1   
    27    14    15 1   
    28    14    30 1   
    29    14    31 1   
    30    15    16 1   
    31    15    32 1   
    32    16    52 2   
    33    16    53 1   
    34    17    18 1   
    35    17    33 1   
    36    17    34 1   
    37    17    53 1   
    38    18    19 1   
    39    18    35 1   
    40    18    36 1   
    41    19    37 1   
    42    19    38 1   
    43    19    39 1   
    44    39    40 ar  
    45    39    44 ar  
    46    40    41 ar  
    47    40    45 1   
    48    41    42 ar  
    49    41    46 1   
    50    42    43 ar  
    51    42    47 1   
    52    43    44 ar  
    53    44    48 1   
    54    49    50 1   
    55    49    51 1   
@<TRIPOS>SUBSTRUCTURE
     1 4GI         1 TEMP              0 ****  ****    0 ROOT
