@<TRIPOS>MOLECULE
4GJ
   23    23     1     0     0
SMALL
bcc


@<TRIPOS>ATOM
      1 N5          11.3350    37.5680    26.2990 nb         1 4GJ      -0.695000
      2 C1          11.5170    35.7820    27.8900 ca         1 4GJ      -0.245300
      3 C2          12.3340    35.0600    27.0300 ca         1 4GJ       0.036900
      4 C3          12.6390    35.6240    25.7930 ca         1 4GJ      -0.245300
      5 C4          12.1180    36.8680    25.4840 ca         1 4GJ       0.396200
      6 C6          11.0500    37.0200    27.4740 ca         1 4GJ       0.396200
      7 S2          13.0670    33.4900    27.3800 ss         1 4GJ       0.024100
      8 N           15.2230    32.9550    31.8030 n8         1 4GJ      -0.877800
      9 CA          14.4930    32.4150    30.6650 c3         1 4GJ       0.017500
     10 C           15.3940    32.2540    29.4150 c          1 4GJ       0.920600
     11 O           14.9880    31.4290    28.5720 o          1 4GJ      -0.816800
     12 CB          13.3450    33.3910    30.3960 c3         1 4GJ       0.059700
     13 SG          12.1680    32.8730    29.1100 ss         1 4GJ      -0.239100
     14 H1          11.2400    35.3970    28.8620 ha         1 4GJ       0.151000
     15 H3          13.2670    35.1110    25.0750 ha         1 4GJ       0.151000
     16 H4          12.3460    37.3190    24.5240 h4         1 4GJ       0.003100
     17 H6          10.4110    37.5940    28.1350 h4         1 4GJ       0.003100
     18 HA          14.0460    31.4330    30.8730 h1         1 4GJ       0.018700
     19 HB2         13.7220    34.3850    30.1510 h1         1 4GJ       0.058700
     20 HB3         12.7280    33.4890    31.2940 h1         1 4GJ       0.058700
     21 OXT         16.4170    32.9580    29.3490 o          1 4GJ      -0.816800
     22 H           14.7230    32.7410    32.6570 hn         1 4GJ       0.320300
     23 H2          16.1250    32.5040    31.8790 hn         1 4GJ       0.320300
@<TRIPOS>BOND
     1     1     5 ar  
     2     1     6 ar  
     3     2     3 ar  
     4     2     6 ar  
     5     2    14 1   
     6     3     4 ar  
     7     3     7 1   
     8     4     5 ar  
     9     4    15 1   
    10     5    16 1   
    11     6    17 1   
    12     7    13 1   
    13     8     9 1   
    14     8    22 1   
    15     8    23 1   
    16     9    10 1   
    17     9    12 1   
    18     9    18 1   
    19    10    11 1   
    20    10    21 1   
    21    12    13 1   
    22    12    19 1   
    23    12    20 1   
@<TRIPOS>SUBSTRUCTURE
     1 4GJ         1 TEMP              0 ****  ****    0 ROOT
