@<TRIPOS>MOLECULE
4GK
   46    50     1     0     0
SMALL
No Charge or Current Charge


@<TRIPOS>ATOM
      1 CAC          1.2730     3.0090    -0.0380 c3         1 4GK       0.058900
      2 NAZ          1.8330     1.6540    -0.1710 na         1 4GK      -0.153600
      3 CAW          3.1530     1.3260    -0.0260 ca         1 4GK      -0.102200
      4 CAH          4.2470     2.1560     0.2530 ca         1 4GK      -0.090000
      5 CAG          5.5190     1.5580     0.3520 ca         1 4GK      -0.073000
      6 CAU          5.6880     0.1640     0.1760 ca         1 4GK       0.258000
      7 NAM          6.9280    -0.3760     0.2790 nb         1 4GK      -0.664000
      8 CAE          7.0730    -1.7110     0.1080 ca         1 4GK       0.343900
      9 CAD          5.9960    -2.5660    -0.1720 ca         1 4GK      -0.169000
     10 CAF          4.7050    -2.0260    -0.2830 ca         1 4GK      -0.047000
     11 CAV          4.5450    -0.6380    -0.1060 ca         1 4GK      -0.027000
     12 CAX          3.2820    -0.0240    -0.2030 ca         1 4GK       0.082400
     13 NAO          2.0560    -0.6230    -0.4680 nc         1 4GK      -0.564100
     14 CAT          1.2090     0.4240    -0.4430 cd         1 4GK       0.399800
     15 CAK         -0.2700     0.2490    -0.6700 c3         1 4GK      -0.090700
     16 CAJ         -1.0740     0.1700     0.6510 c3         1 4GK      -0.079700
     17 CAS         -2.5550     0.0260     0.4340 cc         1 4GK       0.522300
     18 NAN         -3.1200    -1.2260     0.3810 nc         1 4GK      -0.375300
     19 NAP         -3.3590     1.0710     0.2820 nd         1 4GK      -0.597100
     20 NBA         -4.5290     0.4000     0.1200 na         1 4GK       0.311400
     21 CAQ         -5.7640     1.0060    -0.0890 cd         1 4GK      -0.090300
     22 CAA         -5.8950     2.5110    -0.1510 c3         1 4GK      -0.041800
     23 CAY         -4.3910    -0.9450     0.1770 cd         1 4GK      -0.121000
     24 CAR         -5.5170    -1.8010     0.0260 cd         1 4GK       0.404300
     25 CAB         -5.4120    -3.3000     0.0820 c3         1 4GK      -0.141400
     26 NAL         -6.7270    -1.2810    -0.1760 nc         1 4GK      -0.649000
     27 CAI         -6.8270     0.1110    -0.2290 cc         1 4GK       0.284900
     28 H1           1.6660     3.6480    -0.8380 h1         1 4GK       0.055033
     29 H2           0.1790     2.9790    -0.1070 h1         1 4GK       0.055033
     30 H3           1.5570     3.4300     0.9350 h1         1 4GK       0.055033
     31 H4           4.1250     3.2290     0.3890 ha         1 4GK       0.119000
     32 H5           6.3850     2.1770     0.5680 ha         1 4GK       0.132000
     33 H6           8.0840    -2.1050     0.1990 h4         1 4GK       0.016100
     34 H7           6.1650    -3.6310    -0.3010 ha         1 4GK       0.123000
     35 H8           3.8540    -2.6670    -0.5000 ha         1 4GK       0.136000
     36 H9          -0.6510     1.0760    -1.2810 hc         1 4GK       0.074200
     37 H10         -0.4480    -0.6640    -1.2510 hc         1 4GK       0.074200
     38 H11         -0.7070    -0.6740     1.2460 hc         1 4GK       0.070700
     39 H12         -0.8850     1.0710     1.2470 hc         1 4GK       0.070700
     40 H13         -5.2900     2.9270    -0.9660 hc         1 4GK       0.064033
     41 H14         -6.9350     2.8170    -0.3210 hc         1 4GK       0.064033
     42 H15         -5.5630     2.9760     0.7850 hc         1 4GK       0.064033
     43 H16         -5.0140    -3.6220     1.0510 hc         1 4GK       0.065367
     44 H17         -6.3850    -3.7860    -0.0590 hc         1 4GK       0.065367
     45 H18         -4.7370    -3.6680    -0.6980 hc         1 4GK       0.065367
     46 H19         -7.8360     0.4650    -0.3950 h4         1 4GK       0.039100
@<TRIPOS>BOND
     1     1     2 1   
     2     1    28 1   
     3     1    29 1   
     4     1    30 1   
     5     2     3 1   
     6     2    14 1   
     7     3     4 ar  
     8     3    12 ar  
     9     4     5 ar  
    10     4    31 1   
    11     5     6 ar  
    12     5    32 1   
    13     6     7 ar  
    14     6    11 ar  
    15     7     8 ar  
    16     8     9 ar  
    17     8    33 1   
    18     9    10 ar  
    19     9    34 1   
    20    10    11 ar  
    21    10    35 1   
    22    11    12 ar  
    23    12    13 1   
    24    13    14 2   
    25    14    15 1   
    26    15    16 1   
    27    15    36 1   
    28    15    37 1   
    29    16    17 1   
    30    16    38 1   
    31    16    39 1   
    32    17    18 1   
    33    17    19 2   
    34    18    23 2   
    35    19    20 1   
    36    20    21 1   
    37    20    23 1   
    38    21    22 1   
    39    21    27 2   
    40    22    40 1   
    41    22    41 1   
    42    22    42 1   
    43    23    24 1   
    44    24    25 1   
    45    24    26 2   
    46    25    43 1   
    47    25    44 1   
    48    25    45 1   
    49    26    27 1   
    50    27    46 1   
@<TRIPOS>SUBSTRUCTURE
     1 4GK         1 TEMP              0 ****  ****    0 ROOT
