@<TRIPOS>MOLECULE
4GK
   46    50     1     0     0
SMALL
abcg2


@<TRIPOS>ATOM
      1 CAC          1.1030     2.7390    -0.4060 c3         1 4GK       0.058900
      2 NAZ          1.7380     1.4470    -0.2630 na         1 4GK      -0.153600
      3 CAW          3.0820     1.2470    -0.0990 ca         1 4GK      -0.102200
      4 CAH          4.1480     2.1510     0.0560 ca         1 4GK      -0.090000
      5 CAG          5.4020     1.6230     0.1870 ca         1 4GK      -0.073000
      6 CAU          5.6330     0.2160     0.1560 ca         1 4GK       0.258000
      7 NAM          6.9100    -0.2150     0.2620 nb         1 4GK      -0.664000
      8 CAE          7.1390    -1.5040     0.2370 ca         1 4GK       0.343900
      9 CAD          6.1300    -2.4770     0.1050 ca         1 4GK      -0.169000
     10 CAF          4.8300    -2.0650    -0.0090 ca         1 4GK      -0.047000
     11 CAV          4.5480    -0.6870     0.0110 ca         1 4GK      -0.027000
     12 CAX          3.2530    -0.1300    -0.1170 ca         1 4GK       0.082400
     13 NAO          2.0500    -0.7520    -0.2870 nc         1 4GK      -0.564100
     14 CAT          1.1700     0.2140    -0.3790 cd         1 4GK       0.399800
     15 CAK         -0.2930     0.0060    -0.5530 c3         1 4GK      -0.090700
     16 CAJ         -1.0740     0.1900     0.7600 c3         1 4GK      -0.079700
     17 CAS         -2.5330     0.0110     0.5330 cc         1 4GK       0.522300
     18 NAN         -3.0900    -1.1780     0.2580 nc         1 4GK      -0.375300
     19 NAP         -3.3730     1.0360     0.5390 nd         1 4GK      -0.597100
     20 NBA         -4.5390     0.4620     0.2500 na         1 4GK       0.311400
     21 CAQ         -5.7450     1.0820     0.1280 cd         1 4GK      -0.090300
     22 CAA         -5.8240     2.5500     0.3280 c3         1 4GK      -0.041800
     23 CAY         -4.3680    -0.8790     0.0800 cd         1 4GK      -0.121000
     24 CAR         -5.5050    -1.6630    -0.2370 cd         1 4GK       0.404300
     25 CAB         -5.3570    -3.1340    -0.4280 c3         1 4GK      -0.141400
     26 NAL         -6.6670    -1.0840    -0.3590 nc         1 4GK      -0.649000
     27 CAI         -6.7840     0.2530    -0.1800 cc         1 4GK       0.284900
     28 H1           1.3040     3.1620    -1.3890 h1         1 4GK       0.055033
     29 H2           0.0300     2.6470    -0.2780 h1         1 4GK       0.055033
     30 H3           1.4760     3.4200     0.3560 h1         1 4GK       0.055033
     31 H4           3.9910     3.2210     0.0710 ha         1 4GK       0.119000
     32 H5           6.2590     2.2720     0.3070 ha         1 4GK       0.132000
     33 H6           8.1740    -1.8170     0.3230 h4         1 4GK       0.016100
     34 H7           6.3910    -3.5260     0.0950 ha         1 4GK       0.123000
     35 H8           4.0240    -2.7790    -0.1150 ha         1 4GK       0.136000
     36 H9          -0.6890     0.6800    -1.3170 hc         1 4GK       0.074200
     37 H10         -0.4420    -1.0080    -0.9220 hc         1 4GK       0.074200
     38 H11         -0.7260    -0.5390     1.4940 hc         1 4GK       0.070700
     39 H12         -0.9000     1.1810     1.1790 hc         1 4GK       0.070700
     40 H13         -5.1850     3.0760    -0.3810 hc         1 4GK       0.064033
     41 H14         -6.8480     2.8900     0.1900 hc         1 4GK       0.064033
     42 H15         -5.4980     2.8280     1.3310 hc         1 4GK       0.064033
     43 H16         -5.0210    -3.6120     0.4940 hc         1 4GK       0.065367
     44 H17         -6.3060    -3.5750    -0.7230 hc         1 4GK       0.065367
     45 H18         -4.6110    -3.3550    -1.1920 hc         1 4GK       0.065367
     46 H19         -7.7750     0.6710    -0.2960 h4         1 4GK       0.039100
@<TRIPOS>BOND
     1     1     2 1   
     2     1    28 1   
     3     1    29 1   
     4     1    30 1   
     5     2     3 1   
     6     2    14 1   
     7     3     4 ar  
     8     3    12 ar  
     9     4     5 ar  
    10     4    31 1   
    11     5     6 ar  
    12     5    32 1   
    13     6     7 ar  
    14     6    11 ar  
    15     7     8 ar  
    16     8     9 ar  
    17     8    33 1   
    18     9    10 ar  
    19     9    34 1   
    20    10    11 ar  
    21    10    35 1   
    22    11    12 ar  
    23    12    13 1   
    24    13    14 2   
    25    14    15 1   
    26    15    16 1   
    27    15    36 1   
    28    15    37 1   
    29    16    17 1   
    30    16    38 1   
    31    16    39 1   
    32    17    18 1   
    33    17    19 2   
    34    18    23 2   
    35    19    20 1   
    36    20    21 1   
    37    20    23 1   
    38    21    22 1   
    39    21    27 2   
    40    22    40 1   
    41    22    41 1   
    42    22    42 1   
    43    23    24 1   
    44    24    25 1   
    45    24    26 2   
    46    25    43 1   
    47    25    44 1   
    48    25    45 1   
    49    26    27 1   
    50    27    46 1   
@<TRIPOS>SUBSTRUCTURE
     1 4GK         1 TEMP              0 ****  ****    0 ROOT
