@<TRIPOS>MOLECULE
4GL
   24    24     1     0     0
SMALL
No Charge or Current Charge


@<TRIPOS>ATOM
      1 C1          23.1970   -91.2470   -81.2520 c6         1 4GL       0.401300
      2 O1          24.0790   -92.2280   -81.7710 oh         1 4GL      -0.678000
      3 C2          21.7370   -91.5960   -81.7140 c6         1 4GL       0.157300
      4 O2          21.6760   -91.8760   -83.1350 oh         1 4GL      -0.694000
      5 C3          20.7850   -90.4040   -81.3950 c6         1 4GL       0.136300
      6 O3          19.4750   -90.6470   -81.9480 oh         1 4GL      -0.732000
      7 C4          21.3490   -89.0670   -81.9710 c6         1 4GL       0.111300
      8 O4          20.4650   -87.9680   -81.6430 oh         1 4GL      -0.721000
      9 C5          22.8270   -88.8280   -81.5040 c6         1 4GL       0.165300
     10 O5          23.6380   -89.9990   -81.8200 os         1 4GL      -0.481000
     11 C6          23.0190   -88.3650   -80.0050 c3         1 4GL       0.138600
     12 O6          22.6250   -89.3050   -78.9870 oh         1 4GL      -0.724000
     13 H1          23.2690   -91.2330   -80.1560 h2         1 4GL       0.039700
     14 HO1         23.7170   -92.3590   -82.6780 ho         1 4GL       0.510000
     15 H2          21.3950   -92.4710   -81.1420 h1         1 4GL       0.056700
     16 HO2         20.7290   -91.7060   -83.3630 ho         1 4GL       0.514000
     17 H3          20.7110   -90.3100   -80.3020 h1         1 4GL       0.072700
     18 HO3         19.0210   -89.7690   -81.9020 ho         1 4GL       0.525000
     19 H4          21.3860   -89.1760   -83.0660 h1         1 4GL       0.059700
     20 HO4         20.7240   -87.1990   -82.2050 ho         1 4GL       0.507000
     21 H5          23.2210   -88.0030   -82.1160 h1         1 4GL       0.069700
     22 H61         24.0820   -88.1170   -79.8780 h1         1 4GL       0.029200
     23 H62         22.4660   -87.4250   -79.8720 h1         1 4GL       0.029200
     24 HO6         22.7930   -88.8740   -78.1150 ho         1 4GL       0.508000
@<TRIPOS>BOND
     1     1     2 1   
     2     1     3 1   
     3     1    10 1   
     4     1    13 1   
     5     2    14 1   
     6     3     4 1   
     7     3     5 1   
     8     3    15 1   
     9     4    16 1   
    10     5     6 1   
    11     5     7 1   
    12     5    17 1   
    13     6    18 1   
    14     7     8 1   
    15     7     9 1   
    16     7    19 1   
    17     8    20 1   
    18     9    10 1   
    19     9    11 1   
    20     9    21 1   
    21    11    12 1   
    22    11    22 1   
    23    11    23 1   
    24    12    24 1   
@<TRIPOS>SUBSTRUCTURE
     1 4GL         1 TEMP              0 ****  ****    0 ROOT
