@<TRIPOS>MOLECULE
4GL
   24    24     1     0     0
SMALL
bcc


@<TRIPOS>ATOM
      1 C1          23.0810   -91.2540   -81.4220 c6         1 4GL       0.354900
      2 O1          23.8940   -92.2430   -81.9410 oh         1 4GL      -0.555800
      3 C2          21.6390   -91.5540   -81.8010 c6         1 4GL       0.134100
      4 O2          21.5650   -91.7400   -83.1930 oh         1 4GL      -0.571800
      5 C3          20.7550   -90.4010   -81.3330 c6         1 4GL       0.113100
      6 O3          19.4440   -90.6760   -81.7750 oh         1 4GL      -0.609800
      7 C4          21.2730   -89.0850   -81.8980 c6         1 4GL       0.088100
      8 O4          20.4740   -88.0470   -81.3780 oh         1 4GL      -0.598800
      9 C5          22.7700   -88.8700   -81.6050 c6         1 4GL       0.142100
     10 O5          23.5100   -90.0230   -81.9660 os         1 4GL      -0.434600
     11 C6          23.1140   -88.3300   -80.2260 c3         1 4GL       0.115400
     12 O6          22.6190   -89.1450   -79.1890 oh         1 4GL      -0.601800
     13 H1          23.1440   -91.2250   -80.3260 h2         1 4GL       0.039700
     14 HO1         24.7360   -92.2300   -81.4760 ho         1 4GL       0.411000
     15 H2          21.3340   -92.4640   -81.2630 h1         1 4GL       0.056700
     16 HO2         20.6330   -91.7820   -83.4330 ho         1 4GL       0.415000
     17 H3          20.7930   -90.3620   -80.2380 h1         1 4GL       0.072700
     18 HO3         18.8900   -89.9130   -81.5760 ho         1 4GL       0.426000
     19 H4          21.1670   -89.1360   -82.9900 h1         1 4GL       0.059700
     20 HO4         20.5780   -87.2690   -81.9330 ho         1 4GL       0.408000
     21 H5          23.1230   -88.0920   -82.2910 h1         1 4GL       0.069700
     22 H61         24.2070   -88.2400   -80.1760 h1         1 4GL       0.029200
     23 H62         22.7180   -87.3090   -80.1590 h1         1 4GL       0.029200
     24 HO6         22.9240   -88.7830   -78.3520 ho         1 4GL       0.409000
@<TRIPOS>BOND
     1     1     2 1   
     2     1     3 1   
     3     1    10 1   
     4     1    13 1   
     5     2    14 1   
     6     3     4 1   
     7     3     5 1   
     8     3    15 1   
     9     4    16 1   
    10     5     6 1   
    11     5     7 1   
    12     5    17 1   
    13     6    18 1   
    14     7     8 1   
    15     7     9 1   
    16     7    19 1   
    17     8    20 1   
    18     9    10 1   
    19     9    11 1   
    20     9    21 1   
    21    11    12 1   
    22    11    22 1   
    23    11    23 1   
    24    12    24 1   
@<TRIPOS>SUBSTRUCTURE
     1 4GL         1 TEMP              0 ****  ****    0 ROOT
