@<TRIPOS>MOLECULE
4GM
   31    32     1     0     0
SMALL
No Charge or Current Charge


@<TRIPOS>ATOM
      1 C8           4.6920     1.0940     1.1520 ca         1 4GM      -0.151000
      2 C9           5.4720    -0.0170     0.7950 ca         1 4GM      -0.054000
      3 C2          -2.9500     0.8480    -0.9730 ca         1 4GM       0.023000
      4 C7           3.4010     1.2490     0.6220 ca         1 4GM      -0.057000
      5 C10          4.9570    -0.9730    -0.0960 ca         1 4GM      -0.211000
      6 C3          -1.5500     0.8900    -0.9620 ca         1 4GM      -0.256000
      7 C12         -2.8130    -0.4700     1.0490 ca         1 4GM       0.424900
      8 C1          -3.6020     0.1470     0.0610 ca         1 4GM      -0.284600
      9 C6           2.8750     0.2930    -0.2730 ca         1 4GM      -0.156300
     10 C11          3.6660    -0.8220    -0.6300 ca         1 4GM       0.160100
     11 C4          -0.8730     0.2360     0.0690 ca         1 4GM       0.647900
     12 C5           1.4720     0.4980    -0.8330 c3         1 4GM       0.296100
     13 N2          -1.4640    -0.4270     1.0560 nb         1 4GM      -0.772000
     14 N           -5.6840    -0.6100     1.1040 nt         1 4GM      -0.609000
     15 N1           0.4790     0.2080     0.2010 nu         1 4GM      -0.925100
     16 O           -5.7960     0.5980    -0.7480 o          1 4GM      -0.621100
     17 O1           3.1940    -1.7670    -1.4930 oh         1 4GM      -0.524100
     18 H1           5.0890     1.8360     1.8420 ha         1 4GM       0.121000
     19 H2           6.4720    -0.1360     1.2060 ha         1 4GM       0.116000
     20 H3          -3.5100     1.3470    -1.7640 ha         1 4GM       0.138000
     21 H4           2.8040     2.1140     0.9060 ha         1 4GM       0.117000
     22 H5           5.5690    -1.8300    -0.3680 ha         1 4GM       0.116000
     23 H6          -1.0080     1.4220    -1.7360 ha         1 4GM       0.125000
     24 H7          -3.2630    -1.0230     1.8720 h4         1 4GM       0.004100
     25 H8           1.3710     1.5390    -1.1690 h1         1 4GM       0.050200
     26 H9           1.3040    -0.1440    -1.7090 h1         1 4GM       0.050200
     27 H10         -5.1290    -1.0560     1.8170 hn         1 4GM       0.312000
     28 H11         -6.6910    -0.6640     1.1320 hn         1 4GM       0.312000
     29 H12          0.7690    -0.3830     0.9730 hn         1 4GM       0.506000
     30 H13          3.8850    -2.4540    -1.6050 ho         1 4GM       0.467000
     31 C           -5.0960     0.0690     0.0980 c          1 4GM       0.635700
@<TRIPOS>BOND
     1     1     2 ar  
     2     1     4 ar  
     3     1    18 1   
     4     2     5 ar  
     5     2    19 1   
     6     3     6 ar  
     7     3     8 ar  
     8     3    20 1   
     9     4     9 ar  
    10     4    21 1   
    11     5    10 ar  
    12     5    22 1   
    13     6    11 ar  
    14     6    23 1   
    15     7     8 ar  
    16     7    13 ar  
    17     7    24 1   
    18     8    31 1   
    19     9    10 ar  
    20     9    12 1   
    21    10    17 1   
    22    11    13 ar  
    23    11    15 1   
    24    12    15 1   
    25    12    25 1   
    26    12    26 1   
    27    14    27 1   
    28    14    28 1   
    29    14    31 1   
    30    15    29 1   
    31    16    31 2   
    32    17    30 1   
@<TRIPOS>SUBSTRUCTURE
     1 4GM         1 TEMP              0 ****  ****    0 ROOT
