@<TRIPOS>MOLECULE
4GM
   31    32     1     0     0
SMALL
bcc


@<TRIPOS>ATOM
      1 C8           5.0220     1.1090     0.8070 ca         1 4GM      -0.169000
      2 C9           5.5020    -0.1560     0.5040 ca         1 4GM      -0.072000
      3 C2          -2.8070     0.6160    -0.9900 ca         1 4GM       0.005000
      4 C7           3.7110     1.4310     0.4800 ca         1 4GM      -0.075000
      5 C10          4.6820    -1.0870    -0.1180 ca         1 4GM      -0.229000
      6 C3          -1.4430     0.7270    -0.8950 ca         1 4GM      -0.339300
      7 C12         -2.8130    -0.4960     1.1000 ca         1 4GM       0.490200
      8 C1          -3.5450    -0.0150     0.0190 ca         1 4GM      -0.349900
      9 C6           2.8710     0.5180    -0.1460 ca         1 4GM      -0.156300
     10 C11          3.3690    -0.7570    -0.4420 ca         1 4GM       0.160100
     11 C4          -0.8030     0.1870     0.2410 ca         1 4GM       0.713200
     12 C5           1.4560     0.8850    -0.4880 c3         1 4GM       0.296100
     13 N2          -1.5020    -0.4060     1.2180 nb         1 4GM      -0.772000
     14 N           -5.6900    -0.7860     0.8280 nt         1 4GM      -0.676000
     15 N1           0.5300     0.2300     0.4090 nu         1 4GM      -0.869900
     16 O           -5.5950     0.4160    -1.0680 o          1 4GM      -0.621100
     17 O1           2.5370    -1.6270    -1.0460 oh         1 4GM      -0.485100
     18 H1           5.6570     1.8390     1.2920 ha         1 4GM       0.139000
     19 H2           6.5200    -0.4270     0.7500 ha         1 4GM       0.134000
     20 H3          -3.3150     1.0240    -1.8530 ha         1 4GM       0.156000
     21 H4           3.3270     2.4170     0.7110 ha         1 4GM       0.135000
     22 H5           5.0650    -2.0730    -0.3550 ha         1 4GM       0.134000
     23 H6          -0.8840     1.2240    -1.6750 ha         1 4GM       0.143000
     24 H7          -3.3010    -0.9840     1.9380 h4         1 4GM       0.004100
     25 H8           1.3450     1.9740    -0.4400 h1         1 4GM       0.050200
     26 H9           1.2340     0.5950    -1.5180 h1         1 4GM       0.050200
     27 H10         -5.2490    -1.2410     1.6060 hn         1 4GM       0.312000
     28 H11         -6.6920    -0.8550     0.7700 hn         1 4GM       0.312000
     29 H12          0.8800    -0.1010     1.2940 hn         1 4GM       0.450800
     30 H13          2.9920    -2.4590    -1.2180 ho         1 4GM       0.428000
     31 C           -5.0200    -0.1080    -0.1190 c          1 4GM       0.702700
@<TRIPOS>BOND
     1     1     2 ar  
     2     1     4 ar  
     3     1    18 1   
     4     2     5 ar  
     5     2    19 1   
     6     3     6 ar  
     7     3     8 ar  
     8     3    20 1   
     9     4     9 ar  
    10     4    21 1   
    11     5    10 ar  
    12     5    22 1   
    13     6    11 ar  
    14     6    23 1   
    15     7     8 ar  
    16     7    13 ar  
    17     7    24 1   
    18     8    31 1   
    19     9    10 ar  
    20     9    12 1   
    21    10    17 1   
    22    11    13 ar  
    23    11    15 1   
    24    12    15 1   
    25    12    25 1   
    26    12    26 1   
    27    14    27 1   
    28    14    28 1   
    29    14    31 1   
    30    15    29 1   
    31    16    31 2   
    32    17    30 1   
@<TRIPOS>SUBSTRUCTURE
     1 4GM         1 TEMP              0 ****  ****    0 ROOT
