@<TRIPOS>MOLECULE
4GN
   33    34     1     0     0
SMALL
bcc


@<TRIPOS>ATOM
      1 C2           2.3060     1.1480    -0.0900 ca         1 4GN       0.004000
      2 C3           0.9430     1.0370     0.0170 ca         1 4GN      -0.337300
      3 C11          2.4760    -1.1790     0.3230 ca         1 4GN       0.488200
      4 C1           3.1230     0.0210     0.0450 ca         1 4GN      -0.346900
      5 C4           0.3910    -0.2350     0.2790 ca         1 4GN       0.706200
      6 C            4.5950     0.1690    -0.0620 c          1 4GN       0.699700
      7 C5          -1.9250     0.6190     0.3570 c3         1 4GN       0.237800
      8 N2           1.1670    -1.3150     0.4390 nb         1 4GN      -0.769000
      9 N            5.3080    -0.9580    -0.2350 nt         1 4GN      -0.673000
     10 N1          -0.9360    -0.4330     0.3760 nu         1 4GN      -0.875900
     11 O            5.1260     1.2720     0.0150 o          1 4GN      -0.616100
     12 C8          -5.6690     0.5280    -0.1670 c5         1 4GN      -0.079400
     13 C9          -5.2590    -0.8780    -0.6390 c5         1 4GN      -0.079400
     14 C7          -4.4020     1.1460     0.4640 c5         1 4GN      -0.074900
     15 C10         -3.7400    -0.8070    -0.7770 c5         1 4GN      -0.074900
     16 C6          -3.3290     0.0480     0.4220 c5         1 4GN      -0.087700
     17 H1           2.7480     2.1160    -0.2890 ha         1 4GN       0.155000
     18 H2           0.3120     1.9080    -0.0930 ha         1 4GN       0.143000
     19 H3           3.0420    -2.0910     0.4840 h4         1 4GN       0.009100
     20 H4          -1.7690     1.3140     1.1920 h1         1 4GN       0.043200
     21 H5          -1.8260     1.2070    -0.5630 h1         1 4GN       0.043200
     22 H6           4.8850    -1.8420    -0.4540 hn         1 4GN       0.311000
     23 H7           6.3080    -0.8990    -0.3330 hn         1 4GN       0.311000
     24 H8          -1.2230    -1.3500     0.6810 hn         1 4GN       0.446800
     25 H10         -6.4980     0.4850     0.5400 hc         1 4GN       0.043950
     26 H11         -5.5170    -1.6200     0.1200 hc         1 4GN       0.043950
     27 H12         -5.7570    -1.1770    -1.5620 hc         1 4GN       0.043950
     28 H13         -4.0670     2.0060    -0.1230 hc         1 4GN       0.046200
     29 H14         -4.5700     1.5070     1.4800 hc         1 4GN       0.046200
     30 H15         -3.2710    -1.7920    -0.7960 hc         1 4GN       0.046200
     31 H16         -3.4630    -0.2940    -1.7050 hc         1 4GN       0.046200
     32 H17         -3.4140    -0.5660     1.3280 hc         1 4GN       0.053700
     33 H9          -6.0080     1.1320    -1.0100 hc         1 4GN       0.043950
@<TRIPOS>BOND
     1     1     2 ar  
     2     1     4 ar  
     3     1    17 1   
     4     2     5 ar  
     5     2    18 1   
     6     3     4 ar  
     7     3     8 ar  
     8     3    19 1   
     9     4     6 1   
    10     5     8 ar  
    11     5    10 1   
    12     6     9 1   
    13     6    11 2   
    14     7    10 1   
    15     7    16 1   
    16     7    20 1   
    17     7    21 1   
    18     9    22 1   
    19     9    23 1   
    20    10    24 1   
    21    12    13 1   
    22    12    14 1   
    23    12    25 1   
    24    12    33 1   
    25    13    15 1   
    26    13    26 1   
    27    13    27 1   
    28    14    16 1   
    29    14    28 1   
    30    14    29 1   
    31    15    16 1   
    32    15    30 1   
    33    15    31 1   
    34    16    32 1   
@<TRIPOS>SUBSTRUCTURE
     1 4GN         1 TEMP              0 ****  ****    0 ROOT
