@<TRIPOS>MOLECULE
4GN
   33    34     1     0     0
SMALL
No Charge or Current Charge


@<TRIPOS>ATOM
      1 C2           2.4760     1.2550     0.1930 ca         1 4GN       0.022000
      2 C3           1.0790     1.2120     0.2850 ca         1 4GN      -0.254000
      3 C11          2.4300    -1.1590     0.0750 ca         1 4GN       0.422900
      4 C1           3.1730     0.0360     0.0840 ca         1 4GN      -0.281600
      5 C4           0.4490    -0.0340     0.2620 ca         1 4GN       0.640900
      6 C            4.6660     0.0230    -0.0170 c          1 4GN       0.632700
      7 C5          -1.9430     0.7990     0.1910 c3         1 4GN       0.237800
      8 N2           1.0820    -1.1960     0.1630 nb         1 4GN      -0.769000
      9 N            5.2990    -1.1640    -0.1190 nt         1 4GN      -0.606000
     10 N1          -0.8960    -0.2140     0.3490 nu         1 4GN      -0.931100
     11 O            5.3270     1.0470    -0.0090 o          1 4GN      -0.616100
     12 C8          -5.7580     0.2800     0.1510 c5         1 4GN      -0.079400
     13 C9          -5.2640    -1.0190    -0.5670 c5         1 4GN      -0.079400
     14 C7          -4.5080     1.2030     0.2010 c5         1 4GN      -0.074900
     15 C10         -3.7580    -0.7630    -0.8610 c5         1 4GN      -0.074900
     16 C6          -3.3530     0.1750     0.3080 c5         1 4GN      -0.087700
     17 H1           3.0000     2.2110     0.2070 ha         1 4GN       0.137000
     18 H2           0.5040     2.1270     0.3730 ha         1 4GN       0.125000
     19 H3           2.9150    -2.1300    -0.0060 h4         1 4GN       0.009100
     20 H4          -1.8330     1.5680     0.9670 h1         1 4GN       0.043200
     21 H5          -1.8460     1.2920    -0.7870 h1         1 4GN       0.043200
     22 H6           4.7770    -2.0270    -0.1280 hn         1 4GN       0.311000
     23 H7           6.3060    -1.1760    -0.1870 hn         1 4GN       0.311000
     24 H8          -1.1550    -1.1910     0.2510 hn         1 4GN       0.502000
     25 H10         -6.1160     0.0490     1.1610 hc         1 4GN       0.043950
     26 H11         -5.3960    -1.8920     0.0820 hc         1 4GN       0.043950
     27 H12         -5.8250    -1.2210    -1.4870 hc         1 4GN       0.043950
     28 H13         -4.4250     1.8140    -0.7060 hc         1 4GN       0.046200
     29 H14         -4.5380     1.8920     1.0540 hc         1 4GN       0.046200
     30 H15         -3.1800    -1.6940    -0.8770 hc         1 4GN       0.046200
     31 H16         -3.6170    -0.2800    -1.8350 hc         1 4GN       0.046200
     32 H17         -3.3940    -0.3490     1.2710 hc         1 4GN       0.053700
     33 H9          -6.5910     0.7550    -0.3800 hc         1 4GN       0.043950
@<TRIPOS>BOND
     1     1     2 ar  
     2     1     4 ar  
     3     1    17 1   
     4     2     5 ar  
     5     2    18 1   
     6     3     4 ar  
     7     3     8 ar  
     8     3    19 1   
     9     4     6 1   
    10     5     8 ar  
    11     5    10 1   
    12     6     9 1   
    13     6    11 2   
    14     7    10 1   
    15     7    16 1   
    16     7    20 1   
    17     7    21 1   
    18     9    22 1   
    19     9    23 1   
    20    10    24 1   
    21    12    13 1   
    22    12    14 1   
    23    12    25 1   
    24    12    33 1   
    25    13    15 1   
    26    13    26 1   
    27    13    27 1   
    28    14    16 1   
    29    14    28 1   
    30    14    29 1   
    31    15    16 1   
    32    15    30 1   
    33    15    31 1   
    34    16    32 1   
@<TRIPOS>SUBSTRUCTURE
     1 4GN         1 TEMP              0 ****  ****    0 ROOT
