@<TRIPOS>MOLECULE
4GO
   30    31     1     0     0
SMALL
No Charge or Current Charge


@<TRIPOS>ATOM
      1 C2           1.6400     1.2040     0.3050 ca         1 4GO       0.021000
      2 C3           0.2820     0.9640     0.5520 ca         1 4GO      -0.251000
      3 C10          1.8940    -1.1840     0.0250 ca         1 4GO       0.423900
      4 C1           2.4700     0.0990     0.0290 ca         1 4GO      -0.279600
      5 C4          -0.1820    -0.3540     0.5030 ca         1 4GO       0.643900
      6 C            3.9290     0.2970    -0.2420 c          1 4GO       0.634700
      7 N2           0.5840    -1.4110     0.2640 nb         1 4GO      -0.771000
      8 N            4.6930    -0.7840    -0.4990 nt         1 4GO      -0.607000
      9 N1          -1.4650    -0.7420     0.7520 nu         1 4GO      -0.923100
     10 O            4.4470     1.4000    -0.2380 o          1 4GO      -0.618100
     11 C7          -4.6900    -0.0570    -0.8340 c5         1 4GO      -0.078400
     12 C8          -4.5680     1.1340     0.1770 c5         1 4GO      -0.078400
     13 C6          -3.5060    -0.9990    -0.4760 c5         1 4GO      -0.098400
     14 C9          -3.2690     0.8420     0.9870 c5         1 4GO      -0.098400
     15 C5          -2.4420     0.0350    -0.0430 c5         1 4GO       0.231500
     16 H1           2.0340     2.2190     0.3310 ha         1 4GO       0.139000
     17 H2          -0.3890     1.7840     0.7840 ha         1 4GO       0.126000
     18 H3           2.4880    -2.0740    -0.1740 h4         1 4GO       0.007100
     19 H4           4.2910    -1.7080    -0.5090 hn         1 4GO       0.311500
     20 H5           5.6760    -0.6530    -0.6820 hn         1 4GO       0.311500
     21 H6          -1.4980    -1.7550     0.7010 hn         1 4GO       0.498000
     22 H8          -4.6060     0.3030    -1.8660 hc         1 4GO       0.046450
     23 H9          -4.4940     2.0880    -0.3580 hc         1 4GO       0.046450
     24 H10         -5.4420     1.2070     0.8350 hc         1 4GO       0.046450
     25 H11         -3.7860    -1.6870     0.3320 hc         1 4GO       0.051950
     26 H12         -3.1820    -1.6060    -1.3290 hc         1 4GO       0.051950
     27 H13         -2.7660     1.7590     1.3120 hc         1 4GO       0.051950
     28 H14         -3.4980     0.2600     1.8890 hc         1 4GO       0.051950
     29 H15         -2.0430     0.6280    -0.8810 h1         1 4GO       0.063700
     30 H7          -5.6560    -0.5700    -0.7550 hc         1 4GO       0.046450
@<TRIPOS>BOND
     1     1     2 ar  
     2     1     4 ar  
     3     1    16 1   
     4     2     5 ar  
     5     2    17 1   
     6     3     4 ar  
     7     3     7 ar  
     8     3    18 1   
     9     4     6 1   
    10     5     7 ar  
    11     5     9 1   
    12     6     8 1   
    13     6    10 2   
    14     8    19 1   
    15     8    20 1   
    16     9    15 1   
    17     9    21 1   
    18    11    12 1   
    19    11    13 1   
    20    11    22 1   
    21    11    30 1   
    22    12    14 1   
    23    12    23 1   
    24    12    24 1   
    25    13    15 1   
    26    13    25 1   
    27    13    26 1   
    28    14    15 1   
    29    14    27 1   
    30    14    28 1   
    31    15    29 1   
@<TRIPOS>SUBSTRUCTURE
     1 4GO         1 TEMP              0 ****  ****    0 ROOT
