@<TRIPOS>MOLECULE
4GO
   30    31     1     0     0
SMALL
abcg2


@<TRIPOS>ATOM
      1 C2           1.6110     1.0670    -0.2370 ca         1 4GO       0.021000
      2 C3           0.2700     0.7810    -0.2820 ca         1 4GO      -0.251000
      3 C10          2.0300    -1.2080     0.2630 ca         1 4GO       0.423900
      4 C1           2.5480     0.0620     0.0320 ca         1 4GO      -0.279600
      5 C4          -0.1420    -0.5490    -0.0540 ca         1 4GO       0.643900
      6 C            3.9890     0.4110     0.0800 c          1 4GO       0.634700
      7 N2           0.7460    -1.5130     0.2250 nb         1 4GO      -0.771000
      8 N            4.8660    -0.6020     0.1820 nt         1 4GO      -0.607000
      9 N1          -1.4300    -0.9370    -0.1190 nu         1 4GO      -0.923100
     10 O            4.3540     1.5810     0.0330 o          1 4GO      -0.618100
     11 C7          -4.9790     0.1300    -0.4140 c5         1 4GO      -0.078400
     12 C8          -4.4300     1.1530     0.6110 c5         1 4GO      -0.078400
     13 C6          -3.8110    -0.8150    -0.7390 c5         1 4GO      -0.098400
     14 C9          -3.0510     0.6260     1.0090 c5         1 4GO      -0.098400
     15 C5          -2.5660    -0.0630    -0.2680 c5         1 4GO       0.231500
     16 H1           1.9440     2.0820    -0.4120 ha         1 4GO       0.139000
     17 H2          -0.4450     1.5650    -0.4840 ha         1 4GO       0.126000
     18 H3           2.6800    -2.0420     0.5100 h4         1 4GO       0.007100
     19 H4           4.6020    -1.5690     0.1240 hn         1 4GO       0.311500
     20 H5           5.8520    -0.4030     0.1900 hn         1 4GO       0.311500
     21 H6          -1.6090    -1.8900     0.1590 hn         1 4GO       0.498000
     22 H8          -5.3340     0.6360    -1.3110 hc         1 4GO       0.046450
     23 H9          -4.3330     2.1350     0.1450 hc         1 4GO       0.046450
     24 H10         -5.0880     1.2750     1.4700 hc         1 4GO       0.046450
     25 H11         -3.9010    -1.7430    -0.1660 hc         1 4GO       0.051950
     26 H12         -3.7590    -1.0900    -1.7930 hc         1 4GO       0.051950
     27 H13         -2.3780     1.4070     1.3650 hc         1 4GO       0.051950
     28 H14         -3.1370    -0.1240     1.8010 hc         1 4GO       0.051950
     29 H15         -2.3250     0.7020    -1.0140 h1         1 4GO       0.063700
     30 H7          -5.8270    -0.4240    -0.0130 hc         1 4GO       0.046450
@<TRIPOS>BOND
     1     1     2 ar  
     2     1     4 ar  
     3     1    16 1   
     4     2     5 ar  
     5     2    17 1   
     6     3     4 ar  
     7     3     7 ar  
     8     3    18 1   
     9     4     6 1   
    10     5     7 ar  
    11     5     9 1   
    12     6     8 1   
    13     6    10 2   
    14     8    19 1   
    15     8    20 1   
    16     9    15 1   
    17     9    21 1   
    18    11    12 1   
    19    11    13 1   
    20    11    22 1   
    21    11    30 1   
    22    12    14 1   
    23    12    23 1   
    24    12    24 1   
    25    13    15 1   
    26    13    25 1   
    27    13    26 1   
    28    14    15 1   
    29    14    27 1   
    30    14    28 1   
    31    15    29 1   
@<TRIPOS>SUBSTRUCTURE
     1 4GO         1 TEMP              0 ****  ****    0 ROOT
