@<TRIPOS>MOLECULE
4GP
   29    29     1     0     0
SMALL
bcc


@<TRIPOS>ATOM
      1 C1          -0.1020    -0.2280     0.2180 c6         1 4GP       0.274500
      2 C2           0.6470    -1.5080    -0.1600 c6         1 4GP       0.079100
      3 O2           0.0980    -2.6330     0.4790 oh         1 4GP      -0.611800
      4 C3           2.0990    -1.3920     0.2790 c6         1 4GP       0.114100
      5 O3           2.8790    -2.4700    -0.1810 oh         1 4GP      -0.617800
      6 C4           2.7250    -0.1110    -0.2600 c6         1 4GP       0.116100
      7 O4           4.0110     0.0910     0.2710 oh         1 4GP      -0.602800
      8 C5           1.8540     1.0860     0.1250 c6         1 4GP       0.156100
      9 O5           0.5410     0.8890    -0.3560 os         1 4GP      -0.406600
     10 C6           2.3740     2.3810    -0.4610 c3         1 4GP       0.149400
     11 O6           1.5780     3.4410     0.0130 oh         1 4GP      -0.572800
     12 N1          -1.4410    -0.2770    -0.2540 ns         1 4GP      -0.580900
     13 C7          -2.5040     0.2420     0.4000 c          1 4GP       0.518100
     14 C8          -3.8390     0.1080    -0.3960 c          1 4GP       0.880600
     15 O7          -2.4410     0.7540     1.5020 o          1 4GP      -0.618100
     16 O8          -4.8450     0.5240     0.1880 o          1 4GP      -0.797800
     17 O9          -3.7410    -0.4010    -1.5270 o          1 4GP      -0.797800
     18 H1          -0.1210    -0.1310     1.3120 h2         1 4GP       0.073700
     19 H2           0.6170    -1.6150    -1.2560 h1         1 4GP       0.048700
     20 HO2         -0.7540    -2.8340     0.0790 ho         1 4GP       0.430000
     21 H3           2.1200    -1.3380     1.3800 h1         1 4GP       0.051700
     22 HO3          2.6170    -3.2640     0.2960 ho         1 4GP       0.420000
     23 H4           2.7550    -0.1750    -1.3600 h1         1 4GP       0.048700
     24 HO4          4.5630    -0.6540     0.0100 ho         1 4GP       0.414000
     25 H5           1.8440     1.1710     1.2240 h1         1 4GP       0.058700
     26 H61          2.3520     2.3120    -1.5570 h1         1 4GP       0.024200
     27 H62          3.4220     2.4980    -0.1670 h1         1 4GP       0.024200
     28 HO6          1.9460     4.2630    -0.3240 ho         1 4GP       0.391000
     29 HN1         -1.6310    -0.6140    -1.1880 hn         1 4GP       0.336500
@<TRIPOS>BOND
     1     1     2 1   
     2     1     9 1   
     3     1    12 1   
     4     1    18 1   
     5     2     3 1   
     6     2     4 1   
     7     2    19 1   
     8     3    20 1   
     9     4     5 1   
    10     4     6 1   
    11     4    21 1   
    12     5    22 1   
    13     6     7 1   
    14     6     8 1   
    15     6    23 1   
    16     7    24 1   
    17     8     9 1   
    18     8    10 1   
    19     8    25 1   
    20    10    11 1   
    21    10    26 1   
    22    10    27 1   
    23    11    28 1   
    24    12    13 1   
    25    12    29 1   
    26    13    14 1   
    27    13    15 2   
    28    14    16 1   
    29    14    17 1   
@<TRIPOS>SUBSTRUCTURE
     1 4GP         1 TEMP              0 ****  ****    0 ROOT
