@<TRIPOS>MOLECULE
4GP
   29    29     1     0     0
SMALL
No Charge or Current Charge


@<TRIPOS>ATOM
      1 C1          -0.0840    -0.3440     0.3240 c6         1 4GP       0.297700
      2 C2           0.7340    -1.5950    -0.1480 c6         1 4GP       0.102300
      3 O2           0.2120    -2.8350     0.3910 oh         1 4GP      -0.734000
      4 C3           2.2170    -1.4170     0.2850 c6         1 4GP       0.137300
      5 O3           3.0000    -2.5370    -0.1610 oh         1 4GP      -0.680000
      6 C4           2.7880    -0.0810    -0.2720 c6         1 4GP       0.139300
      7 O4           4.1510     0.0810     0.1670 oh         1 4GP      -0.725000
      8 C5           1.8700     1.0990     0.1820 c6         1 4GP       0.179300
      9 O5           0.5010     0.8460    -0.2400 os         1 4GP      -0.453000
     10 C6           2.3280     2.4720    -0.4140 c3         1 4GP       0.172600
     11 O6           1.4690     3.5730    -0.0530 oh         1 4GP      -0.695000
     12 N1          -1.4590    -0.3890    -0.1590 ns         1 4GP      -0.513900
     13 C7          -2.5250     0.3060     0.3930 c          1 4GP       0.451100
     14 C8          -3.9130     0.2290    -0.4710 c          1 4GP       0.670000
     15 O7          -2.4090     0.9130     1.4600 o          1 4GP      -0.618100
     16 O8          -4.9060     0.8250    -0.0560 o          1 4GP      -0.692500
     17 O9          -3.9130    -0.4300    -1.5100 o          1 4GP      -0.692500
     18 H1          -0.0800    -0.2830     1.4240 h2         1 4GP       0.073700
     19 H2           0.6970    -1.6260    -1.2480 h1         1 4GP       0.048700
     20 HO2         -0.7650    -2.8280     0.2510 ho         1 4GP       0.529000
     21 H3           2.2400    -1.3670     1.3850 h1         1 4GP       0.051700
     22 HO3          2.3970    -3.3110    -0.0580 ho         1 4GP       0.459000
     23 H4           2.7590    -0.1280    -1.3720 h1         1 4GP       0.048700
     24 HO4          4.5380    -0.8260     0.1130 ho         1 4GP       0.513000
     25 H5           1.8920     1.1770     1.2790 h1         1 4GP       0.058700
     26 H61          2.3680     2.3730    -1.5070 h1         1 4GP       0.024200
     27 H62          3.3510     2.6740    -0.0690 h1         1 4GP       0.024200
     28 HO6          1.8030     4.3660    -0.5310 ho         1 4GP       0.490000
     29 HN1         -1.6390    -0.8220    -1.0580 hn         1 4GP       0.336500
@<TRIPOS>BOND
     1     1     2 1   
     2     1     9 1   
     3     1    12 1   
     4     1    18 1   
     5     2     3 1   
     6     2     4 1   
     7     2    19 1   
     8     3    20 1   
     9     4     5 1   
    10     4     6 1   
    11     4    21 1   
    12     5    22 1   
    13     6     7 1   
    14     6     8 1   
    15     6    23 1   
    16     7    24 1   
    17     8     9 1   
    18     8    10 1   
    19     8    25 1   
    20    10    11 1   
    21    10    26 1   
    22    10    27 1   
    23    11    28 1   
    24    12    13 1   
    25    12    29 1   
    26    13    14 1   
    27    13    15 2   
    28    14    16 1   
    29    14    17 1   
@<TRIPOS>SUBSTRUCTURE
     1 4GP         1 TEMP              0 ****  ****    0 ROOT
