@<TRIPOS>MOLECULE
4GR
   66    70     1     0     0
SMALL
abcg2


@<TRIPOS>ATOM
      1 C13          1.5410    -0.8170    -0.4390 c          1 4GR       0.605300
      2 C18          5.3920     2.2100    -0.1530 ca         1 4GR       0.004800
      3 C17          4.0110     2.0730     0.0080 ca         1 4GR      -0.027800
      4 C16          3.3060     0.8760    -0.4520 ce         1 4GR      -0.092200
      5 C15          2.2010     0.3920     0.1140 cf         1 4GR      -0.274200
      6 C19          6.0620     3.3570     0.2350 ca         1 4GR      -0.092000
      7 C20          5.3610     4.4100     0.7960 ca         1 4GR      -0.089000
      8 C21          3.9910     4.2800     0.9730 ca         1 4GR       0.128000
      9 C22          3.3180     3.1350     0.5860 ca         1 4GR      -0.089000
     10 C24          3.1170    -2.9750     1.4470 ca         1 4GR      -0.107000
     11 C11          2.2190    -3.7670     0.7370 ca         1 4GR      -0.096300
     12 C34          6.8790     1.1020    -1.8200 cc         1 4GR       0.396400
     13 C27          4.0340    -4.4650    -0.7000 ca         1 4GR      -0.105000
     14 C33         -5.6880    -0.8770     1.1740 ca         1 4GR      -0.066000
     15 CL1          3.1030     5.5840     1.6750 cl         1 4GR      -0.176000
     16 C3          -1.4260    -2.6240     0.4450 cc         1 4GR       0.396800
     17 N4          -2.1700    -3.6230     0.8520 nd         1 4GR      -0.657000
     18 C5          -3.4290    -3.1350     0.8860 cd         1 4GR       0.342000
     19 C6          -3.4830    -1.8190     0.5020 cc         1 4GR      -0.128000
     20 N7          -2.1720    -1.5270     0.2220 na         1 4GR      -0.276500
     21 C8          -4.5630    -0.8540     0.3480 ca         1 4GR      -0.042000
     22 C9           0.0490    -2.6690     0.1890 c3         1 4GR       0.080400
     23 C10          0.7500    -3.7350     1.0480 c3         1 4GR      -0.039100
     24 N12          0.6190    -1.3590     0.3950 ns         1 4GR      -0.513900
     25 O14          1.7980    -1.2660    -1.5420 o          1 4GR      -0.573100
     26 N23          6.1430     1.1430    -0.7040 na         1 4GR      -0.002500
     27 C25          4.4530    -2.9080     1.0770 ca         1 4GR      -0.105000
     28 C26          4.9150    -3.6490    -0.0020 ca         1 4GR      -0.098000
     29 C28          2.6960    -4.5170    -0.3350 ca         1 4GR      -0.107000
     30 C29         -4.5020     0.1330    -0.6350 ca         1 4GR      -0.066000
     31 C30         -5.5120     1.0670    -0.8020 ca         1 4GR      -0.152500
     32 C31         -6.6350     1.0310     0.0250 ca         1 4GR       0.006000
     33 C32         -6.7040     0.0440     1.0120 ca         1 4GR      -0.152500
     34 N35          7.4230    -0.0810    -1.9010 nd         1 4GR      -0.377000
     35 N36          7.0090    -0.7510    -0.8210 nd         1 4GR      -0.042000
     36 N37          6.2490    -0.0370    -0.0960 nc         1 4GR      -0.188800
     37 N38         -7.7110     1.9120    -0.0560 ns         1 4GR      -0.139000
     38 C39         -7.8770     2.9670    -0.8960 c          1 4GR       0.646100
     39 O40         -7.0990     3.3310    -1.7480 o          1 4GR      -0.521000
     40 O41         -9.0430     3.5570    -0.6430 os         1 4GR      -0.458100
     41 C42         -9.3770     4.6930    -1.4380 c3         1 4GR       0.171900
     42 H49          3.7140     0.3590    -1.3140 ha         1 4GR       0.213000
     43 H48          1.7840     0.8400     1.0100 ha         1 4GR       0.181000
     44 H50          7.1350     3.4290     0.1110 ha         1 4GR       0.137000
     45 H51          5.8770     5.3100     1.0990 ha         1 4GR       0.143000
     46 H52          2.2440     3.0750     0.7010 ha         1 4GR       0.140000
     47 H62          6.9770     1.9190    -2.5160 h5         1 4GR       0.080100
     48 H56          4.3870    -5.0540    -1.5370 ha         1 4GR       0.116500
     49 H61         -5.7710    -1.6050     1.9680 ha         1 4GR       0.120000
     50 H43         -1.8150    -0.6240    -0.0560 hn         1 4GR       0.363000
     51 H44          0.2030    -2.9200    -0.8640 h1         1 4GR       0.105700
     52 H45          0.2890    -4.7020     0.8430 hc         1 4GR       0.069200
     53 H46          0.5810    -3.5120     2.1040 hc         1 4GR       0.069200
     54 H47          0.5580    -0.9830     1.3290 hn         1 4GR       0.309500
     55 H54          5.1310    -2.2660     1.6240 ha         1 4GR       0.116500
     56 H55          5.9540    -3.5860    -0.2970 ha         1 4GR       0.124000
     57 H57          2.0100    -5.1410    -0.8960 ha         1 4GR       0.105500
     58 H58         -3.6570     0.1780    -1.3110 ha         1 4GR       0.120000
     59 H59         -5.4140     1.8050    -1.5810 ha         1 4GR       0.133500
     60 H60         -7.5620     0.0040     1.6720 ha         1 4GR       0.133500
     61 H63         -8.4590     1.7450     0.6010 hn         1 4GR       0.168000
     62 H64        -10.3420     5.0330    -1.0750 h1         1 4GR       0.052033
     63 H66         -8.6470     5.4930    -1.3200 h1         1 4GR       0.052033
     64 H65         -9.4610     4.4320    -2.4920 h1         1 4GR       0.052033
     65 H53          2.7690    -2.3980     2.2960 ha         1 4GR       0.105500
     66 CL2         -4.7420    -4.1420     1.3320 cl         1 4GR      -0.137000
@<TRIPOS>BOND
     1     1     5 1   
     2     1    24 1   
     3     1    25 2   
     4     2     3 ar  
     5     2     6 ar  
     6     2    26 1   
     7     3     4 1   
     8     3     9 ar  
     9     4     5 2   
    10     4    42 1   
    11     5    43 1   
    12     6     7 ar  
    13     6    44 1   
    14     7     8 ar  
    15     7    45 1   
    16     8     9 ar  
    17     8    15 1   
    18     9    46 1   
    19    10    11 ar  
    20    10    27 ar  
    21    10    65 1   
    22    11    23 1   
    23    11    29 ar  
    24    12    26 1   
    25    12    34 2   
    26    12    47 1   
    27    13    28 ar  
    28    13    29 ar  
    29    13    48 1   
    30    14    21 ar  
    31    14    33 ar  
    32    14    49 1   
    33    16    17 2   
    34    16    20 1   
    35    16    22 1   
    36    17    18 1   
    37    18    19 2   
    38    18    66 1   
    39    19    20 1   
    40    19    21 1   
    41    20    50 1   
    42    21    30 ar  
    43    22    23 1   
    44    22    24 1   
    45    22    51 1   
    46    23    52 1   
    47    23    53 1   
    48    24    54 1   
    49    26    36 1   
    50    27    28 ar  
    51    27    55 1   
    52    28    56 1   
    53    29    57 1   
    54    30    31 ar  
    55    30    58 1   
    56    31    32 ar  
    57    31    59 1   
    58    32    33 ar  
    59    32    37 1   
    60    33    60 1   
    61    34    35 1   
    62    35    36 2   
    63    37    38 1   
    64    37    61 1   
    65    38    39 2   
    66    38    40 1   
    67    40    41 1   
    68    41    62 1   
    69    41    63 1   
    70    41    64 1   
@<TRIPOS>SUBSTRUCTURE
     1 4GR         1 TEMP              0 ****  ****    0 ROOT
