@<TRIPOS>MOLECULE
4GR
   66    70     1     0     0
SMALL
No Charge or Current Charge


@<TRIPOS>ATOM
      1 C13          1.7500    -0.9800    -0.5320 c          1 4GR       0.605300
      2 C18          5.1120     2.6780    -1.3400 ca         1 4GR       0.004800
      3 C17          4.0590     2.2110    -0.5080 ca         1 4GR      -0.027800
      4 C16          3.2260     1.0270    -0.8860 ce         1 4GR      -0.092200
      5 C15          2.5550     0.1720    -0.0580 cf         1 4GR      -0.274200
      6 C19          5.8580     3.8120    -0.9550 ca         1 4GR      -0.092000
      7 C20          5.5690     4.4820     0.2450 ca         1 4GR      -0.089000
      8 C21          4.5310     4.0230     1.0670 ca         1 4GR       0.128000
      9 C22          3.7810     2.8970     0.6940 ca         1 4GR      -0.089000
     10 C24          2.1820    -3.5330     3.2820 ca         1 4GR      -0.107000
     11 C11          1.7690    -4.1130     2.0650 ca         1 4GR      -0.096300
     12 C34          5.4430     2.6170    -3.7670 cc         1 4GR       0.396400
     13 C27          3.9500    -5.1940     1.8600 ca         1 4GR      -0.105000
     14 C33         -5.4680    -1.3310    -0.4850 ca         1 4GR      -0.066000
     15 Cl1          4.1620     4.8640     2.5670 cl         1 4GR      -0.176000
     16 C3          -1.0080    -2.7020    -0.2880 cc         1 4GR       0.396800
     17 N4          -1.6500    -3.4680    -1.1640 nd         1 4GR      -0.657000
     18 C5          -2.8870    -2.8820    -1.3390 cd         1 4GR       0.342000
     19 C6          -3.0020    -1.7710    -0.5370 cc         1 4GR      -0.128000
     20 N7          -1.7910    -1.6380     0.1000 na         1 4GR      -0.276500
     21 C8          -4.1430    -0.8540    -0.5000 ca         1 4GR      -0.042000
     22 C9           0.3930    -2.9610     0.2350 c3         1 4GR       0.080400
     23 C10          0.3750    -3.8370     1.5100 c3         1 4GR      -0.039100
     24 N12          1.1740    -1.7290     0.4650 ns         1 4GR      -0.513900
     25 O14          1.6040    -1.2470    -1.7150 o          1 4GR      -0.573100
     26 N23          5.4420     2.0330    -2.5340 na         1 4GR      -0.002500
     27 C25          3.4720    -3.7810     3.7840 ca         1 4GR      -0.105000
     28 C26          4.3560    -4.6110     3.0730 ca         1 4GR      -0.098000
     29 C28          2.6600    -4.9460     1.3580 ca         1 4GR      -0.107000
     30 C29         -3.9220     0.5350    -0.4400 ca         1 4GR      -0.066000
     31 C30         -5.0030     1.4340    -0.3900 ca         1 4GR      -0.152500
     32 C31         -6.3310     0.9550    -0.3900 ca         1 4GR       0.006000
     33 C32         -6.5490    -0.4340    -0.4350 ca         1 4GR      -0.152500
     34 N35          5.9400     1.7070    -4.5870 nd         1 4GR      -0.377000
     35 N36          6.2520     0.6020    -3.8130 nd         1 4GR      -0.042000
     36 N37          5.9810     0.7950    -2.5460 nc         1 4GR      -0.188800
     37 N38         -7.4710     1.8020    -0.3410 ns         1 4GR      -0.139000
     38 C39         -7.6050     3.1770    -0.2840 c          1 4GR       0.646100
     39 O40         -6.6980     3.9980    -0.2610 o          1 4GR      -0.521000
     40 O41         -8.9380     3.4900    -0.2570 os         1 4GR      -0.458100
     41 C42         -9.3030     4.8810    -0.1910 c3         1 4GR       0.171900
     42 H49          3.1650     0.8390    -1.9600 ha         1 4GR       0.213000
     43 H48          2.6090     0.3150     1.0190 ha         1 4GR       0.181000
     44 H50          6.6720     4.1710    -1.5830 ha         1 4GR       0.137000
     45 H51          6.1480     5.3540     0.5370 ha         1 4GR       0.143000
     46 H52          2.9710     2.5710     1.3400 ha         1 4GR       0.140000
     47 H62          5.0980     3.6200    -3.9850 h5         1 4GR       0.080100
     48 H56          4.6330    -5.8370     1.3090 ha         1 4GR       0.116500
     49 H61         -5.6690    -2.4000    -0.4930 ha         1 4GR       0.120000
     50 H43         -1.5130    -0.9120     0.7480 hn         1 4GR       0.363000
     51 H44          0.9150    -3.5350    -0.5420 h1         1 4GR       0.105700
     52 H45         -0.1250    -4.7860     1.2800 hc         1 4GR       0.069200
     53 H46         -0.2480    -3.3470     2.2690 hc         1 4GR       0.069200
     54 H47          1.3810    -1.4580     1.4190 hn         1 4GR       0.309500
     55 H54          3.7860    -3.3290     4.7230 ha         1 4GR       0.116500
     56 H55          5.3540    -4.8030     3.4620 ha         1 4GR       0.124000
     57 H57          2.3540    -5.4020     0.4180 ha         1 4GR       0.105500
     58 H58         -2.9060     0.9250    -0.4430 ha         1 4GR       0.120000
     59 H59         -4.7840     2.4970    -0.3520 ha         1 4GR       0.133500
     60 H60         -7.5640    -0.8260    -0.4250 ha         1 4GR       0.133500
     61 H63         -8.3530     1.3100    -0.3490 hn         1 4GR       0.168000
     62 H64        -10.3960     4.9890    -0.1840 h1         1 4GR       0.052033
     63 H66         -8.9100     5.3470     0.7230 h1         1 4GR       0.052033
     64 H65         -8.9130     5.4320    -1.0570 h1         1 4GR       0.052033
     65 H53          1.5070    -2.8880     3.8400 ha         1 4GR       0.105500
     66 Cl2         -4.0440    -3.4990    -2.4780 cl         1 4GR      -0.137000
@<TRIPOS>BOND
     1     1     5 1   
     2     1    24 1   
     3     1    25 2   
     4     2     3 ar  
     5     2     6 ar  
     6     2    26 1   
     7     3     4 1   
     8     3     9 ar  
     9     4     5 2   
    10     4    42 1   
    11     5    43 1   
    12     6     7 ar  
    13     6    44 1   
    14     7     8 ar  
    15     7    45 1   
    16     8     9 ar  
    17     8    15 1   
    18     9    46 1   
    19    10    11 ar  
    20    10    27 ar  
    21    10    65 1   
    22    11    23 1   
    23    11    29 ar  
    24    12    26 1   
    25    12    34 2   
    26    12    47 1   
    27    13    28 ar  
    28    13    29 ar  
    29    13    48 1   
    30    14    21 ar  
    31    14    33 ar  
    32    14    49 1   
    33    16    17 2   
    34    16    20 1   
    35    16    22 1   
    36    17    18 1   
    37    18    19 2   
    38    18    66 1   
    39    19    20 1   
    40    19    21 1   
    41    20    50 1   
    42    21    30 ar  
    43    22    23 1   
    44    22    24 1   
    45    22    51 1   
    46    23    52 1   
    47    23    53 1   
    48    24    54 1   
    49    26    36 1   
    50    27    28 ar  
    51    27    55 1   
    52    28    56 1   
    53    29    57 1   
    54    30    31 ar  
    55    30    58 1   
    56    31    32 ar  
    57    31    59 1   
    58    32    33 ar  
    59    32    37 1   
    60    33    60 1   
    61    34    35 1   
    62    35    36 2   
    63    37    38 1   
    64    37    61 1   
    65    38    39 2   
    66    38    40 1   
    67    40    41 1   
    68    41    62 1   
    69    41    63 1   
    70    41    64 1   
@<TRIPOS>SUBSTRUCTURE
     1 4GR         1 TEMP              0 ****  ****    0 ROOT
