@<TRIPOS>MOLECULE
4GS
   28    29     1     0     0
SMALL
abcg2


@<TRIPOS>ATOM
      1 C1          -1.9700    -0.1640     0.0150 cc         1 4GS       0.138500
      2 C           -3.2570     0.4640    -0.0790 cc         1 4GS       0.517900
      3 C2          -0.6420     0.4540    -0.2250 c          1 4GS       0.538600
      4 C7           2.6100    -1.0970    -0.7310 c6         1 4GS      -0.130900
      5 C4           2.4120     0.6340     1.0700 c6         1 4GS      -0.130900
      6 C6           4.0700    -0.6800    -0.9020 c6         1 4GS       0.151800
      7 C5           3.8810     0.9830     0.8270 c6         1 4GS       0.151800
      8 C3           1.7880     0.0750    -0.2070 c6         1 4GS       0.111700
      9 N2          -2.1540    -1.4040     0.3290 nd         1 4GS      -0.309300
     10 N1          -4.1530    -0.4460     0.1850 nd         1 4GS      -0.440300
     11 N4           4.6700    -0.1170     0.2950 n7         1 4GS      -0.845400
     12 N           -3.5280     1.7570    -0.3320 nv         1 4GS      -1.037900
     13 N3           0.4090    -0.3360    -0.0070 ns         1 4GS      -0.480900
     14 O1          -0.5880     1.6150    -0.6110 o          1 4GS      -0.610100
     15 O           -3.4580    -1.5890     0.4370 os         1 4GS       0.118600
     16 H2           2.5550    -1.9320    -0.0220 hc         1 4GS       0.052700
     17 H3           2.3360    -0.1120     1.8680 hc         1 4GS       0.052700
     18 H4           1.8640     1.5210     1.4000 hc         1 4GS       0.052700
     19 H5           4.6640    -1.5370    -1.2260 h1         1 4GS       0.057700
     20 H6           4.1390     0.0660    -1.7010 h1         1 4GS       0.057700
     21 H7           3.9380     1.8160     0.1170 h1         1 4GS       0.057700
     22 H8           4.3420     1.3310     1.7520 h1         1 4GS       0.057700
     23 H9           1.7830     0.8620    -0.9660 h1         1 4GS       0.080700
     24 H10          4.7430    -0.8420     1.0000 hn         1 4GS       0.405000
     25 H12         -2.8050     2.2930    -0.7820 hn         1 4GS       0.498500
     26 H13         -4.4720     1.9960    -0.5860 hn         1 4GS       0.498500
     27 H14          0.2470    -1.2670     0.3480 hn         1 4GS       0.332500
     28 H1           2.2030    -1.4480    -1.6820 hc         1 4GS       0.052700
@<TRIPOS>BOND
     1     1     2 1   
     2     1     3 1   
     3     1     9 2   
     4     2    10 2   
     5     2    12 1   
     6     3    13 1   
     7     3    14 2   
     8     4     6 1   
     9     4     8 1   
    10     4    16 1   
    11     4    28 1   
    12     5     7 1   
    13     5     8 1   
    14     5    17 1   
    15     5    18 1   
    16     6    11 1   
    17     6    19 1   
    18     6    20 1   
    19     7    11 1   
    20     7    21 1   
    21     7    22 1   
    22     8    13 1   
    23     8    23 1   
    24     9    15 1   
    25    10    15 1   
    26    11    24 1   
    27    12    25 1   
    28    12    26 1   
    29    13    27 1   
@<TRIPOS>SUBSTRUCTURE
     1 4GS         1 TEMP              0 ****  ****    0 ROOT
