@<TRIPOS>MOLECULE
4GS
   28    29     1     0     0
SMALL
No Charge or Current Charge


@<TRIPOS>ATOM
      1 C1          -1.9920    -0.2190     0.0270 cc         1 4GS       0.138500
      2 C           -3.2430     0.4280     0.0100 cc         1 4GS       0.517900
      3 C2          -0.7040     0.4880    -0.2230 c          1 4GS       0.538600
      4 C7           2.6680    -1.1310    -0.7430 c6         1 4GS      -0.130900
      5 C4           2.3640     0.6860     0.9780 c6         1 4GS      -0.130900
      6 C6           4.1550    -0.7270    -0.8690 c6         1 4GS       0.151800
      7 C5           3.8570     1.0520     0.8180 c6         1 4GS       0.151800
      8 C3           1.7980     0.0800    -0.3290 c6         1 4GS       0.111700
      9 N2          -2.1370    -1.5060     0.2810 nd         1 4GS      -0.309300
     10 N1          -4.2370    -0.3760     0.2360 nd         1 4GS      -0.440300
     11 N4           4.6460    -0.1310     0.3970 n7         1 4GS      -0.845400
     12 N           -3.4780     1.7500    -0.2080 nv         1 4GS      -1.037900
     13 N3           0.4030    -0.3370    -0.1480 ns         1 4GS      -0.480900
     14 O1          -0.5920     1.6820    -0.4820 o          1 4GS      -0.610100
     15 O           -3.5630    -1.6310     0.4180 os         1 4GS       0.118600
     16 H2           2.5680    -1.9400    -0.0060 hc         1 4GS       0.052700
     17 H3           2.2440    -0.0250     1.8080 hc         1 4GS       0.052700
     18 H4           1.7950     1.5850     1.2520 hc         1 4GS       0.052700
     19 H5           4.7590    -1.6110    -1.1230 h1         1 4GS       0.057700
     20 H6           4.2720    -0.0010    -1.6890 h1         1 4GS       0.057700
     21 H7           3.9620     1.8520     0.0690 h1         1 4GS       0.057700
     22 H8           4.2480     1.4390     1.7720 h1         1 4GS       0.057700
     23 H9           1.8400     0.8380    -1.1270 h1         1 4GS       0.080700
     24 H10          4.5760    -0.8430     1.1350 hn         1 4GS       0.405000
     25 H12         -2.7000     2.3100    -0.5570 hn         1 4GS       0.498500
     26 H13         -4.4160     2.0300    -0.4780 hn         1 4GS       0.498500
     27 H14          0.2170    -1.3110     0.0660 hn         1 4GS       0.332500
     28 H1           2.3160    -1.5340    -1.7020 hc         1 4GS       0.052700
@<TRIPOS>BOND
     1     1     2 1   
     2     1     3 1   
     3     1     9 2   
     4     2    10 2   
     5     2    12 1   
     6     3    13 1   
     7     3    14 2   
     8     4     6 1   
     9     4     8 1   
    10     4    16 1   
    11     4    28 1   
    12     5     7 1   
    13     5     8 1   
    14     5    17 1   
    15     5    18 1   
    16     6    11 1   
    17     6    19 1   
    18     6    20 1   
    19     7    11 1   
    20     7    21 1   
    21     7    22 1   
    22     8    13 1   
    23     8    23 1   
    24     9    15 1   
    25    10    15 1   
    26    11    24 1   
    27    12    25 1   
    28    12    26 1   
    29    13    27 1   
@<TRIPOS>SUBSTRUCTURE
     1 4GS         1 TEMP              0 ****  ****    0 ROOT
