@<TRIPOS>MOLECULE
4GT
   31    32     1     0     0
SMALL
bcc


@<TRIPOS>ATOM
      1 C5           1.2410    -1.1790     0.0820 ca         1 4GT       0.533200
      2 C4           2.3000    -0.2860    -0.0060 ca         1 4GT      -0.541200
      3 C15          1.9090     1.0870    -0.0800 ca         1 4GT       0.801200
      4 C7          -0.2840     0.4720     0.1190 ca         1 4GT       0.969900
      5 C2           3.7090    -0.7100    -0.0540 c          1 4GT       0.720700
      6 C11         -5.1300    -0.1440     0.4210 c5         1 4GT      -0.078400
      7 C12         -4.5930    -1.0740    -0.6900 c5         1 4GT      -0.078400
      8 C10         -3.9190     0.6650     0.9220 c5         1 4GT      -0.096400
      9 C13         -3.2300    -0.4970    -1.0590 c5         1 4GT      -0.096400
     10 C9          -2.7000    -0.0120     0.2900 c5         1 4GT       0.238500
     11 N6          -0.0340    -0.8480     0.1400 nb         1 4GT      -0.814000
     12 N14          0.6270     1.4350    -0.0020 nb         1 4GT      -0.890000
     13 N16          2.7920     2.0780    -0.2100 nv         1 4GT      -0.954500
     14 N1           3.9800    -1.9890     0.2700 nt         1 4GT      -0.667000
     15 N8          -1.5600     0.8690     0.2350 nu         1 4GT      -0.853900
     16 O3           4.6120     0.0600    -0.3880 o          1 4GT      -0.656100
     17 H1           1.4310    -2.2480     0.0870 h4         1 4GT       0.007100
     18 H3          -5.5880    -0.7200     1.2260 hc         1 4GT       0.044950
     19 H4          -4.4690    -2.0880    -0.3030 hc         1 4GT       0.044950
     20 H5          -5.2690    -1.1410    -1.5420 hc         1 4GT       0.044950
     21 H6          -3.9820     1.6990     0.5690 hc         1 4GT       0.050200
     22 H7          -3.8490     0.7040     2.0100 hc         1 4GT       0.050200
     23 H8          -2.5660    -1.2180    -1.5380 hc         1 4GT       0.050200
     24 H9          -3.3380     0.3570    -1.7350 hc         1 4GT       0.050200
     25 H10         -2.4220    -0.8850     0.8850 h1         1 4GT       0.081700
     26 H11          3.7670     1.8670    -0.3390 hn         1 4GT       0.461800
     27 H12          2.4620     3.0250    -0.2730 hn         1 4GT       0.461800
     28 H13          3.3150    -2.5940     0.7180 hn         1 4GT       0.310500
     29 H14          4.9400    -2.2900     0.2870 hn         1 4GT       0.310500
     30 H15         -1.7260     1.8580     0.1370 hn         1 4GT       0.445800
     31 H2          -5.9030     0.5220     0.0360 hc         1 4GT       0.044950
@<TRIPOS>BOND
     1     1     2 ar  
     2     1    11 ar  
     3     1    17 1   
     4     2     3 ar  
     5     2     5 1   
     6     3    12 ar  
     7     3    13 1   
     8     4    11 ar  
     9     4    12 ar  
    10     4    15 1   
    11     5    14 1   
    12     5    16 2   
    13     6     7 1   
    14     6     8 1   
    15     6    18 1   
    16     6    31 1   
    17     7     9 1   
    18     7    19 1   
    19     7    20 1   
    20     8    10 1   
    21     8    21 1   
    22     8    22 1   
    23     9    10 1   
    24     9    23 1   
    25     9    24 1   
    26    10    15 1   
    27    10    25 1   
    28    13    26 1   
    29    13    27 1   
    30    14    28 1   
    31    14    29 1   
    32    15    30 1   
@<TRIPOS>SUBSTRUCTURE
     1 4GT         1 TEMP              0 ****  ****    0 ROOT
