@<TRIPOS>MOLECULE
4GT
   31    32     1     0     0
SMALL
No Charge or Current Charge


@<TRIPOS>ATOM
      1 C5           1.2410    -1.2000    -0.1530 ca         1 4GT       0.204900
      2 C4           2.2720    -0.2600     0.0330 ca         1 4GT      -0.410600
      3 C15          1.8640     1.0750     0.1320 ca         1 4GT       0.472900
      4 C7          -0.3080     0.4830    -0.1230 ca         1 4GT       0.443900
      5 C2           3.7060    -0.6830     0.0980 c          1 4GT       0.653700
      6 C11         -5.0080    -0.1570     0.6340 c5         1 4GT      -0.078400
      7 C12         -4.6350    -1.1530    -0.5160 c5         1 4GT      -0.078400
      8 C10         -3.8590     0.8910     0.6310 c5         1 4GT      -0.096400
      9 C13         -3.2370    -0.6840    -1.0190 c5         1 4GT      -0.096400
     10 C9          -2.6600    -0.0090     0.2510 c5         1 4GT       0.238500
     11 N6          -0.0490    -0.8320    -0.2350 nb         1 4GT      -0.288000
     12 N14          0.5900     1.4570     0.0490 nb         1 4GT      -0.364000
     13 N16          2.7260     2.0880     0.3290 nv         1 4GT      -1.064900
     14 N1           3.9670    -2.0020     0.0970 nt         1 4GT      -0.600000
     15 N8          -1.6170     0.9410    -0.2260 nu         1 4GT      -0.909100
     16 O3           4.6390     0.1010     0.1300 o          1 4GT      -0.656100
     17 H1           1.4350    -2.2670    -0.2510 h4         1 4GT       0.007100
     18 H3          -5.0570    -0.6800     1.5970 hc         1 4GT       0.044950
     19 H4          -4.5950    -2.1810    -0.1380 hc         1 4GT       0.044950
     20 H5          -5.3750    -1.1420    -1.3250 hc         1 4GT       0.044950
     21 H6          -4.0530     1.6790    -0.1080 hc         1 4GT       0.050200
     22 H7          -3.7320     1.3750     1.6060 hc         1 4GT       0.050200
     23 H8          -2.6200    -1.5170    -1.3730 hc         1 4GT       0.050200
     24 H9          -3.3420     0.0200    -1.8550 hc         1 4GT       0.050200
     25 H10         -2.3680    -0.7010     1.0570 h1         1 4GT       0.081700
     26 H11          3.7120     1.8440     0.2150 hn         1 4GT       0.517000
     27 H12          2.4450     3.0190     0.0400 hn         1 4GT       0.517000
     28 H13          3.2120    -2.6680     0.0700 hn         1 4GT       0.310500
     29 H14          4.9260    -2.3110     0.1340 hn         1 4GT       0.310500
     30 H15         -1.7120     1.9380    -0.0430 hn         1 4GT       0.501000
     31 H2          -5.9870     0.3110     0.4770 hc         1 4GT       0.044950
@<TRIPOS>BOND
     1     1     2 ar  
     2     1    11 ar  
     3     1    17 1   
     4     2     3 ar  
     5     2     5 1   
     6     3    12 ar  
     7     3    13 1   
     8     4    11 ar  
     9     4    12 ar  
    10     4    15 1   
    11     5    14 1   
    12     5    16 2   
    13     6     7 1   
    14     6     8 1   
    15     6    18 1   
    16     6    31 1   
    17     7     9 1   
    18     7    19 1   
    19     7    20 1   
    20     8    10 1   
    21     8    21 1   
    22     8    22 1   
    23     9    10 1   
    24     9    23 1   
    25     9    24 1   
    26    10    15 1   
    27    10    25 1   
    28    13    26 1   
    29    13    27 1   
    30    14    28 1   
    31    14    29 1   
    32    15    30 1   
@<TRIPOS>SUBSTRUCTURE
     1 4GT         1 TEMP              0 ****  ****    0 ROOT
