@<TRIPOS>MOLECULE
4GU
   25    27     1     0     0
SMALL
No Charge or Current Charge


@<TRIPOS>ATOM
      1 C1          -0.8060    -0.3310     0.1190 ca         1 4GU       0.459900
      2 C2          -2.0250     0.3160    -0.0400 ca         1 4GU      -0.390900
      3 C3          -3.1950    -0.3580     0.1340 ca         1 4GU       0.155500
      4 N4           0.3910     0.3530    -0.0250 nu         1 4GU      -0.922900
      5 N5          -3.6940     1.8180    -0.4390 nc         1 4GU      -0.515100
      6 N6          -0.7870    -1.6320     0.4680 nb         1 4GU      -0.292000
      7 N7          -3.2110    -1.6590     0.4720 nb         1 4GU      -0.218000
      8 N8          -4.2090     0.5510    -0.1050 na         1 4GU      -0.155100
      9 C9           1.7470    -0.0320    -0.0990 ca         1 4GU       0.264000
     10 C10         -1.9920    -2.2340     0.6240 ca         1 4GU       0.194900
     11 C11         -2.3620     1.6660    -0.3970 cd         1 4GU       0.386800
     12 C12          2.7620     0.9000     0.2370 ca         1 4GU       0.119000
     13 F13          2.4340     2.1510     0.6440 f          1 4GU      -0.187000
     14 C14          2.1330    -1.3150    -0.5400 ca         1 4GU      -0.093000
     15 C15          4.1200     0.5460     0.1610 ca         1 4GU      -0.126000
     16 C16          3.4940    -1.6690    -0.6160 ca         1 4GU      -0.104000
     17 C17          4.4870    -0.7410    -0.2620 ca         1 4GU      -0.104000
     18 HN4          0.2720     1.3610     0.0470 hn         1 4GU       0.513000
     19 HN8         -5.2080     0.3590    -0.0550 hn         1 4GU       0.390000
     20 H10         -1.9800    -3.2860     0.9010 h5         1 4GU       0.050100
     21 H11         -1.7230     2.5110    -0.6240 h4         1 4GU       0.050800
     22 H14          1.3870    -2.0420    -0.8430 ha         1 4GU       0.148000
     23 H15          4.8840     1.2720     0.4290 ha         1 4GU       0.133000
     24 H16          3.7770    -2.6630    -0.9570 ha         1 4GU       0.121000
     25 H17          5.5380    -1.0170    -0.3240 ha         1 4GU       0.121000
@<TRIPOS>BOND
     1     1     2 ar  
     2     1     4 1   
     3     1     6 ar  
     4     2     3 ar  
     5     2    11 1   
     6     3     7 ar  
     7     3     8 1   
     8     4     9 1   
     9     4    18 1   
    10     5     8 1   
    11     5    11 2   
    12     6    10 ar  
    13     7    10 ar  
    14     8    19 1   
    15     9    12 ar  
    16     9    14 ar  
    17    10    20 1   
    18    11    21 1   
    19    12    13 1   
    20    12    15 ar  
    21    14    16 ar  
    22    14    22 1   
    23    15    17 ar  
    24    15    23 1   
    25    16    17 ar  
    26    16    24 1   
    27    17    25 1   
@<TRIPOS>SUBSTRUCTURE
     1 4GU         1 TEMP              0 ****  ****    0 ROOT
