@<TRIPOS>MOLECULE
4GU
   25    27     1     0     0
SMALL
abcg2


@<TRIPOS>ATOM
      1 C1          -0.7330    -0.2460     0.0070 ca         1 4GU       0.459900
      2 C2          -1.9680     0.4330    -0.0620 ca         1 4GU      -0.390900
      3 C3          -3.1020    -0.3510     0.1600 ca         1 4GU       0.155500
      4 N4           0.4210     0.4280    -0.1860 nu         1 4GU      -0.922900
      5 N5          -3.7810     1.7340    -0.2290 nc         1 4GU      -0.515100
      6 N6          -0.7300    -1.5440     0.2710 nb         1 4GU      -0.292000
      7 N7          -3.1100    -1.6610     0.4260 nb         1 4GU      -0.218000
      8 N8          -4.1540     0.4770     0.0490 na         1 4GU      -0.155100
      9 C9           1.7320    -0.0510    -0.1680 ca         1 4GU       0.264000
     10 C10         -1.8970    -2.1670     0.4620 ca         1 4GU       0.194900
     11 C11         -2.4740     1.7350    -0.3000 cd         1 4GU       0.386800
     12 C12          2.7470     0.8510     0.1510 ca         1 4GU       0.119000
     13 F13          2.3940     2.1140     0.4530 f          1 4GU      -0.187000
     14 C14          2.1120    -1.3540    -0.4880 ca         1 4GU      -0.093000
     15 C15          4.0790     0.5070     0.1620 ca         1 4GU      -0.126000
     16 C16          3.4500    -1.7200    -0.4680 ca         1 4GU      -0.104000
     17 C17          4.4360    -0.7990    -0.1470 ca         1 4GU      -0.104000
     18 HN4          0.3250     1.4260    -0.2940 hn         1 4GU       0.513000
     19 HN8         -5.1310     0.2480     0.1420 hn         1 4GU       0.390000
     20 H10         -1.8240    -3.2280     0.6760 h5         1 4GU       0.050100
     21 H11         -1.9400     2.6470    -0.5190 h4         1 4GU       0.050800
     22 H14          1.3600    -2.0820    -0.7460 ha         1 4GU       0.148000
     23 H15          4.8240     1.2510     0.4150 ha         1 4GU       0.133000
     24 H16          3.7190    -2.7370    -0.7170 ha         1 4GU       0.121000
     25 H17          5.4790    -1.0870    -0.1380 ha         1 4GU       0.121000
@<TRIPOS>BOND
     1     1     2 ar  
     2     1     4 1   
     3     1     6 ar  
     4     2     3 ar  
     5     2    11 1   
     6     3     7 ar  
     7     3     8 1   
     8     4     9 1   
     9     4    18 1   
    10     5     8 1   
    11     5    11 2   
    12     6    10 ar  
    13     7    10 ar  
    14     8    19 1   
    15     9    12 ar  
    16     9    14 ar  
    17    10    20 1   
    18    11    21 1   
    19    12    13 1   
    20    12    15 ar  
    21    14    16 ar  
    22    14    22 1   
    23    15    17 ar  
    24    15    23 1   
    25    16    17 ar  
    26    16    24 1   
    27    17    25 1   
@<TRIPOS>SUBSTRUCTURE
     1 4GU         1 TEMP              0 ****  ****    0 ROOT
