@<TRIPOS>MOLECULE
4GX
   37    39     1     0     0
SMALL
No Charge or Current Charge


@<TRIPOS>ATOM
      1 N1          -5.2000    -1.7630    -0.6700 nc         1 4GX      -0.435300
      2 N3          -1.2950     0.9620     0.2620 n          1 4GX      -0.386800
      3 C4           0.8430     2.3760     0.7250 c6         1 4GX       0.145300
      4 C6           4.0570     0.2820     0.2110 ca         1 4GX       0.339300
      5 C7           4.1200    -0.0250    -1.1630 ca         1 4GX      -0.143000
      6 C8           4.9970    -1.0280    -1.6090 ca         1 4GX      -0.077000
      7 C10          5.6660    -1.3240     0.7010 ca         1 4GX       0.338900
      8 C9           5.7840    -1.6870    -0.6510 ca         1 4GX      -0.164000
      9 C1          -3.4050    -0.4090    -0.2470 cd         1 4GX       0.143500
     10 C           -4.7920    -0.5340    -0.5390 cd         1 4GX       0.510900
     11 C2          -2.6950     0.9100    -0.0410 c          1 4GX       0.533600
     12 C12         -0.3950    -0.2410     0.3290 c6         1 4GX       0.095500
     13 C3          -0.6000     2.2910     0.1620 c6         1 4GX       0.095500
     14 C11          1.0520    -0.0140     0.8470 c6         1 4GX       0.145300
     15 N5           4.8220    -0.3580     1.1340 nb         1 4GX      -0.679000
     16 N2          -2.8720    -1.6220    -0.1980 nc         1 4GX      -0.295300
     17 N4           1.6730     1.2220     0.3120 n3         1 4GX      -0.733600
     18 N           -5.7000     0.4700    -0.6900 nv         1 4GX      -1.031900
     19 O1          -3.3090     1.9700    -0.1320 o          1 4GX      -0.593100
     20 O           -3.9880    -2.4790    -0.4580 os         1 4GX       0.113600
     21 H1           1.2930     3.3190     0.3820 h1         1 4GX       0.045200
     22 H2           0.7890     2.4300     1.8230 h1         1 4GX       0.045200
     23 H3           3.1730     1.4210     1.8160 h1         1 4GX       0.056200
     24 H4           3.4880     2.3340     0.3460 h1         1 4GX       0.056200
     25 H5           3.4880     0.5100    -1.8670 ha         1 4GX       0.139000
     26 H6           5.0630    -1.2860    -2.6640 ha         1 4GX       0.119000
     27 H7           6.2660    -1.8210     1.4630 h4         1 4GX       0.019100
     28 H8           6.4770    -2.4700    -0.9460 ha         1 4GX       0.124000
     29 H9          -0.8350    -0.9910     0.9980 h1         1 4GX       0.071200
     30 H10         -0.3320    -0.6800    -0.6770 h1         1 4GX       0.071200
     31 H11         -0.5630     2.5690    -0.9000 h1         1 4GX       0.071200
     32 H12         -1.2000     3.0610     0.6680 h1         1 4GX       0.071200
     33 H13          1.0230     0.0310     1.9460 h1         1 4GX       0.045200
     34 H14          1.6510    -0.8980     0.5860 h1         1 4GX       0.045200
     35 H16         -5.4110     1.4110    -0.4290 hn         1 4GX       0.490000
     36 H17         -6.6880     0.2430    -0.6280 hn         1 4GX       0.490000
     37 C5           3.1030     1.3760     0.7210 c3         1 4GX       0.117500
@<TRIPOS>BOND
     1     1    10 2   
     2     1    20 1   
     3     2    11 1   
     4     2    12 1   
     5     2    13 1   
     6     3    13 1   
     7     3    17 1   
     8     3    21 1   
     9     3    22 1   
    10     4     5 ar  
    11     4    15 ar  
    12     4    37 1   
    13     5     6 ar  
    14     5    25 1   
    15     6     8 ar  
    16     6    26 1   
    17     7     8 ar  
    18     7    15 ar  
    19     7    27 1   
    20     8    28 1   
    21     9    10 1   
    22     9    11 1   
    23     9    16 2   
    24    10    18 1   
    25    11    19 2   
    26    12    14 1   
    27    12    29 1   
    28    12    30 1   
    29    13    31 1   
    30    13    32 1   
    31    14    17 1   
    32    14    33 1   
    33    14    34 1   
    34    16    20 1   
    35    17    37 1   
    36    18    35 1   
    37    18    36 1   
    38    23    37 1   
    39    24    37 1   
@<TRIPOS>SUBSTRUCTURE
     1 4GX         1 TEMP              0 ****  ****    0 ROOT
