@<TRIPOS>MOLECULE
4GX
   37    39     1     0     0
SMALL
abcg2


@<TRIPOS>ATOM
      1 N1          -4.9330    -1.5520    -0.2610 nc         1 4GX      -0.435300
      2 N3          -1.1710     1.0770    -0.7980 n          1 4GX      -0.386800
      3 C4           0.6600     2.2570     0.3100 c6         1 4GX       0.145300
      4 C6           3.7090     0.1300     0.6500 ca         1 4GX       0.339300
      5 C7           3.9450    -0.1280    -0.6980 ca         1 4GX      -0.143000
      6 C8           5.0110    -0.9400    -1.0460 ca         1 4GX      -0.077000
      7 C10          5.4990    -1.1490     1.2700 ca         1 4GX       0.338900
      8 C9           5.8120    -1.4650    -0.0430 ca         1 4GX      -0.164000
      9 C1          -3.2920    -0.1150    -0.6000 cd         1 4GX       0.143500
     10 C           -4.4150    -0.4610     0.2260 cd         1 4GX       0.510900
     11 C2          -2.4740     1.1250    -0.4940 c          1 4GX       0.533600
     12 C12         -0.3480    -0.1190    -0.9030 c6         1 4GX       0.095500
     13 C3          -0.3760     2.2970    -0.7980 c6         1 4GX       0.095500
     14 C11          0.7000    -0.1230     0.1970 c6         1 4GX       0.145300
     15 N5           4.4740    -0.3770     1.6130 nb         1 4GX      -0.679000
     16 N2          -3.2080    -0.9920    -1.5450 nc         1 4GX      -0.295300
     17 N4           1.4990     1.0860     0.1570 n3         1 4GX      -0.733600
     18 N           -4.9050     0.2050     1.2900 nv         1 4GX      -1.031900
     19 O1          -3.0710     2.1400    -0.1570 o          1 4GX      -0.593100
     20 O           -4.1890    -1.8620    -1.3540 os         1 4GX       0.113600
     21 H1           1.2780     3.1550     0.2450 h1         1 4GX       0.045200
     22 H2           0.1500     2.2800     1.2880 h1         1 4GX       0.045200
     23 H3           2.2870     0.7650     2.1100 h1         1 4GX       0.056200
     24 H4           3.0120     2.0600     1.1730 h1         1 4GX       0.056200
     25 H5           3.2940     0.2990    -1.4480 ha         1 4GX       0.139000
     26 H6           5.2150    -1.1590    -2.0870 ha         1 4GX       0.119000
     27 H7           6.1010    -1.5390     2.0830 h4         1 4GX       0.019100
     28 H8           6.6570    -2.1030    -0.2660 ha         1 4GX       0.124000
     29 H9          -0.9500    -1.0190    -0.8280 h1         1 4GX       0.071200
     30 H10          0.1390    -0.1240    -1.8810 h1         1 4GX       0.071200
     31 H11          0.1290     2.3670    -1.7650 h1         1 4GX       0.071200
     32 H12         -1.0220     3.1630    -0.6890 h1         1 4GX       0.071200
     33 H13          0.2010    -0.2460     1.1730 h1         1 4GX       0.045200
     34 H14          1.3430    -0.9930     0.0520 h1         1 4GX       0.045200
     35 H16         -4.3050     0.8750     1.7400 hn         1 4GX       0.490000
     36 H17         -5.5060    -0.3060     1.9160 hn         1 4GX       0.490000
     37 C5           2.5980     1.0490     1.0920 c3         1 4GX       0.117500
@<TRIPOS>BOND
     1     1    10 2   
     2     1    20 1   
     3     2    11 1   
     4     2    12 1   
     5     2    13 1   
     6     3    13 1   
     7     3    17 1   
     8     3    21 1   
     9     3    22 1   
    10     4     5 ar  
    11     4    15 ar  
    12     4    37 1   
    13     5     6 ar  
    14     5    25 1   
    15     6     8 ar  
    16     6    26 1   
    17     7     8 ar  
    18     7    15 ar  
    19     7    27 1   
    20     8    28 1   
    21     9    10 1   
    22     9    11 1   
    23     9    16 2   
    24    10    18 1   
    25    11    19 2   
    26    12    14 1   
    27    12    29 1   
    28    12    30 1   
    29    13    31 1   
    30    13    32 1   
    31    14    17 1   
    32    14    33 1   
    33    14    34 1   
    34    16    20 1   
    35    17    37 1   
    36    18    35 1   
    37    18    36 1   
    38    23    37 1   
    39    24    37 1   
@<TRIPOS>SUBSTRUCTURE
     1 4GX         1 TEMP              0 ****  ****    0 ROOT
