@<TRIPOS>MOLECULE
4GY
   32    33     1     0     0
SMALL
No Charge or Current Charge


@<TRIPOS>ATOM
      1 N1           3.5860    -0.3950     1.6510 nv         1 4GY      -1.034900
      2 N3           4.3340     0.8660    -0.1170 nc         1 4GY      -0.439300
      3 C6           2.2490     0.0030    -0.4120 cd         1 4GY       0.138500
      4 C7           1.0080    -0.7530    -0.0740 c          1 4GY       0.538600
      5 C10         -1.2770    -1.3480    -0.9900 c3         1 4GY       0.100000
      6 C13         -4.9480    -0.0350    -0.3970 c6         1 4GY      -0.073400
      7 C15         -3.3600     1.3350     1.0550 c6         1 4GY      -0.073400
      8 C2           3.3920     0.1400     0.4140 cd         1 4GY       0.515900
      9 O4           3.7450     1.2100    -1.3740 os         1 4GY       0.118600
     10 N5           2.4320     0.6610    -1.5490 nc         1 4GY      -0.309300
     11 O8           0.8250    -1.3470     0.9830 o          1 4GY      -0.612100
     12 N9           0.0500    -0.7270    -1.0730 ns         1 4GY      -0.479900
     13 C11         -2.4100    -0.3360    -0.6500 c6         1 4GY      -0.081700
     14 C12         -3.8010    -1.0260    -0.7160 c6         1 4GY      -0.070400
     15 C14         -4.7390     0.6370     0.9810 c6         1 4GY      -0.075400
     16 C16         -2.2100     0.3480     0.7350 c6         1 4GY      -0.070400
     17 H1           2.7820    -0.8010     2.1270 hn         1 4GY       0.497000
     18 H2           4.3290    -0.0120     2.2290 hn         1 4GY       0.497000
     19 H3          -1.4960    -1.8110    -1.9610 h1         1 4GY       0.060700
     20 H4          -1.2670    -2.1470    -0.2370 h1         1 4GY       0.060700
     21 H6          -5.9110    -0.5620    -0.4120 hc         1 4GY       0.040200
     22 H7          -3.3330     2.1760     0.3470 hc         1 4GY       0.040200
     23 H8          -3.2140     1.7650     2.0550 hc         1 4GY       0.040200
     24 H9           0.2920    -0.2100    -1.9120 hn         1 4GY       0.332500
     25 H10         -2.3740     0.4390    -1.4290 hc         1 4GY       0.047700
     26 H11         -3.8350    -1.8650    -0.0070 hc         1 4GY       0.042450
     27 H12         -3.9600    -1.4580    -1.7140 hc         1 4GY       0.042450
     28 H13         -5.5380     1.3680     1.1650 hc         1 4GY       0.040200
     29 H14         -4.8160    -0.1170     1.7770 hc         1 4GY       0.040200
     30 H15         -1.2570     0.8930     0.7570 hc         1 4GY       0.042450
     31 H16         -2.1510    -0.4160     1.5230 hc         1 4GY       0.042450
     32 H5          -5.0010     0.7340    -1.1800 hc         1 4GY       0.040200
@<TRIPOS>BOND
     1     1     8 1   
     2     1    17 1   
     3     1    18 1   
     4     2     8 2   
     5     2     9 1   
     6     3     4 1   
     7     3     8 1   
     8     3    10 2   
     9     4    11 2   
    10     4    12 1   
    11     5    12 1   
    12     5    13 1   
    13     5    19 1   
    14     5    20 1   
    15     6    14 1   
    16     6    15 1   
    17     6    21 1   
    18     6    32 1   
    19     7    15 1   
    20     7    16 1   
    21     7    22 1   
    22     7    23 1   
    23     9    10 1   
    24    12    24 1   
    25    13    14 1   
    26    13    16 1   
    27    13    25 1   
    28    14    26 1   
    29    14    27 1   
    30    15    28 1   
    31    15    29 1   
    32    16    30 1   
    33    16    31 1   
@<TRIPOS>SUBSTRUCTURE
     1 4GY         1 TEMP              0 ****  ****    0 ROOT
