@<TRIPOS>MOLECULE
4GY
   32    33     1     0     0
SMALL
bcc


@<TRIPOS>ATOM
      1 N1           4.0630    -1.0440     1.0660 nv         1 4GY      -0.924500
      2 N3           4.2890     0.9710    -0.1200 nc         1 4GY      -0.439300
      3 C6           2.2570     0.1120    -0.2140 cd         1 4GY       0.138500
      4 C7           1.0890    -0.7710     0.0210 c          1 4GY       0.605600
      5 C10         -1.2400    -1.2340    -0.6300 c3         1 4GY       0.100000
      6 C13         -4.9600    -0.2030    -0.4940 c6         1 4GY      -0.073400
      7 C15         -3.6200     1.4990     0.7820 c6         1 4GY      -0.073400
      8 C2           3.5830    -0.0350     0.3150 cd         1 4GY       0.515900
      9 O4           3.4450     1.7110    -0.8900 os         1 4GY       0.118600
     10 N5           2.2340     1.1850    -0.9340 nc         1 4GY      -0.309300
     11 O8           1.1760    -1.6570     0.8620 o          1 4GY      -0.612100
     12 N9           0.0140    -0.5140    -0.7240 ns         1 4GY      -0.546900
     13 C11         -2.4380    -0.2940    -0.5460 c6         1 4GY      -0.081700
     14 C12         -3.7330    -1.1040    -0.5790 c6         1 4GY      -0.070400
     15 C14         -4.9110     0.6880     0.7430 c6         1 4GY      -0.075400
     16 C16         -2.3930     0.5960     0.6960 c6         1 4GY      -0.070400
     17 H1           3.3860    -1.5900     1.5720 hn         1 4GY       0.441800
     18 H2           4.9390    -0.8940     1.5400 hn         1 4GY       0.441800
     19 H3          -1.3450    -1.8900    -1.4990 h1         1 4GY       0.060700
     20 H4          -1.2050    -1.8730     0.2520 h1         1 4GY       0.060700
     21 H6          -5.8700    -0.8080    -0.4920 hc         1 4GY       0.040200
     22 H7          -3.6100     2.2040    -0.0570 hc         1 4GY       0.040200
     23 H8          -3.5770     2.1010     1.6930 hc         1 4GY       0.040200
     24 H9           0.0740     0.2170    -1.4170 hn         1 4GY       0.332500
     25 H10         -2.4260     0.3540    -1.4340 hc         1 4GY       0.047700
     26 H11         -3.7370    -1.8050     0.2650 hc         1 4GY       0.042450
     27 H12         -3.7710    -1.7110    -1.4880 hc         1 4GY       0.042450
     28 H13         -5.7790     1.3510     0.7670 hc         1 4GY       0.040200
     29 H14         -4.9700     0.0630     1.6410 hc         1 4GY       0.040200
     30 H15         -1.4830     1.2010     0.6980 hc         1 4GY       0.042450
     31 H16         -2.3480    -0.0410     1.5880 hc         1 4GY       0.042450
     32 H5          -5.0060     0.4240    -1.3910 hc         1 4GY       0.040200
@<TRIPOS>BOND
     1     1     8 1   
     2     1    17 1   
     3     1    18 1   
     4     2     8 2   
     5     2     9 1   
     6     3     4 1   
     7     3     8 1   
     8     3    10 2   
     9     4    11 2   
    10     4    12 1   
    11     5    12 1   
    12     5    13 1   
    13     5    19 1   
    14     5    20 1   
    15     6    14 1   
    16     6    15 1   
    17     6    21 1   
    18     6    32 1   
    19     7    15 1   
    20     7    16 1   
    21     7    22 1   
    22     7    23 1   
    23     9    10 1   
    24    12    24 1   
    25    13    14 1   
    26    13    16 1   
    27    13    25 1   
    28    14    26 1   
    29    14    27 1   
    30    15    28 1   
    31    15    29 1   
    32    16    30 1   
    33    16    31 1   
@<TRIPOS>SUBSTRUCTURE
     1 4GY         1 TEMP              0 ****  ****    0 ROOT
