@<TRIPOS>MOLECULE
4GZ
   59    61     1     0     0
SMALL
No Charge or Current Charge


@<TRIPOS>ATOM
      1 C4           5.3280    -3.2850     0.6170 ca         1 4GZ      -0.116000
      2 C5           4.5690    -2.1150     0.4480 ca         1 4GZ      -0.094000
      3 C18         -5.3120    -1.1080     1.1900 ca         1 4GZ       0.023000
      4 C3           6.7080    -3.2780     0.3640 ca         1 4GZ      -0.091000
      5 C17         -4.1610    -0.3090     1.1690 ca         1 4GZ      -0.255000
      6 C7           6.5790    -0.9250    -0.2320 ca         1 4GZ      -0.059000
      7 C20         -4.7160    -1.8270    -1.0400 ca         1 4GZ       0.422900
      8 C6           5.1870    -0.9140     0.0190 ca         1 4GZ      -0.147600
      9 C19         -5.6000    -1.8890     0.0540 ca         1 4GZ      -0.281600
     10 C2           7.3410    -2.0970    -0.0600 ca         1 4GZ      -0.082300
     11 C16         -3.3610    -0.3270     0.0250 ca         1 4GZ       0.639900
     12 C8           4.4070     0.3710    -0.1790 c          1 4GZ       0.610700
     13 C27         -1.1960     5.0370    -0.4940 c6         1 4GZ      -0.076400
     14 C26         -1.5600     3.8560    -1.4270 c6         1 4GZ      -0.074900
     15 C28         -1.0590     4.5800     0.9790 c6         1 4GZ      -0.074900
     16 C25         -0.5400     2.6950    -1.2810 c6         1 4GZ      -0.072400
     17 C29         -0.0600     3.3980     1.1130 c6         1 4GZ      -0.072400
     18 C13         -0.4170     2.1770     0.1950 c6         1 4GZ      -0.047000
     19 C1           8.8360    -2.0850    -0.3380 c3         1 4GZ      -0.047800
     20 C12          0.6950     1.0630     0.3160 c3         1 4GZ      -0.093400
     21 C14         -1.7670     1.5280     0.6960 c3         1 4GZ       0.234800
     22 C11          2.1440     1.4560    -0.0540 c3         1 4GZ       0.105000
     23 N21         -3.6080    -1.0550    -1.0560 nb         1 4GZ      -0.771000
     24 N23         -7.0570    -3.4960    -1.0830 nt         1 4GZ      -0.608000
     25 N15         -2.2200     0.3950    -0.1230 nu         1 4GZ      -0.934100
     26 N10          3.0550     0.3200     0.0800 ns         1 4GZ      -0.506900
     27 O9           4.9390     1.4090    -0.5490 o          1 4GZ      -0.603100
     28 O24         -7.5910    -2.8290     0.9590 o          1 4GZ      -0.615100
     29 H1           4.8440    -4.2030     0.9450 ha         1 4GZ       0.116000
     30 H2           3.5030    -2.1620     0.6540 ha         1 4GZ       0.112000
     31 H3          -5.9590    -1.1180     2.0660 ha         1 4GZ       0.138000
     32 H4           7.2850    -4.1910     0.4970 ha         1 4GZ       0.114000
     33 H5          -3.9000     0.3060     2.0230 ha         1 4GZ       0.125000
     34 H6           7.0770    -0.0160    -0.5640 ha         1 4GZ       0.133000
     35 H7          -4.8870    -2.4100    -1.9430 h4         1 4GZ       0.009100
     36 H8          -0.2510     5.4880    -0.8260 hc         1 4GZ       0.042700
     37 H9          -1.9590     5.8230    -0.5710 hc         1 4GZ       0.042700
     38 H10         -2.5770     3.5040    -1.2110 hc         1 4GZ       0.042450
     39 H11         -1.5740     4.2040    -2.4690 hc         1 4GZ       0.042450
     40 H12         -0.7110     5.4230     1.5920 hc         1 4GZ       0.042450
     41 H13         -2.0430     4.3050     1.3820 hc         1 4GZ       0.042450
     42 H14         -0.8140     1.8770    -1.9600 hc         1 4GZ       0.045450
     43 H15          0.4340     3.0580    -1.6330 hc         1 4GZ       0.045450
     44 H16          0.9380     3.7800     0.8630 hc         1 4GZ       0.045450
     45 H17         -0.0070     3.0790     2.1630 hc         1 4GZ       0.045450
     46 H18          9.0370    -2.2700    -1.4000 hc         1 4GZ       0.045033
     47 H19          9.2830    -1.1180    -0.0760 hc         1 4GZ       0.045033
     48 H20          9.3590    -2.8560     0.2400 hc         1 4GZ       0.045033
     49 H21          0.7090     0.6810     1.3450 hc         1 4GZ       0.047700
     50 H22          0.4270     0.2070    -0.3150 hc         1 4GZ       0.047700
     51 H23         -1.6280     1.1950     1.7350 h1         1 4GZ       0.046200
     52 H24         -2.5590     2.2860     0.7080 h1         1 4GZ       0.046200
     53 H25          2.1870     1.8110    -1.0920 h1         1 4GZ       0.053700
     54 H26          2.5000     2.2600     0.6030 h1         1 4GZ       0.053700
     55 H27         -6.4320    -3.4590    -1.8730 hn         1 4GZ       0.312000
     56 H28         -7.8770    -4.0840    -1.1070 hn         1 4GZ       0.312000
     57 H29         -1.8270     0.2870    -1.0510 hn         1 4GZ       0.504000
     58 H30          2.6790    -0.5690     0.3830 hn         1 4GZ       0.314500
     59 C22         -6.8150    -2.7610     0.0220 c          1 4GZ       0.633700
@<TRIPOS>BOND
     1     1     2 ar  
     2     1     4 ar  
     3     1    29 1   
     4     2     8 ar  
     5     2    30 1   
     6     3     5 ar  
     7     3     9 ar  
     8     3    31 1   
     9     4    10 ar  
    10     4    32 1   
    11     5    11 ar  
    12     5    33 1   
    13     6     8 ar  
    14     6    10 ar  
    15     6    34 1   
    16     7     9 ar  
    17     7    23 ar  
    18     7    35 1   
    19     8    12 1   
    20     9    59 1   
    21    10    19 1   
    22    11    23 ar  
    23    11    25 1   
    24    12    26 1   
    25    12    27 2   
    26    13    14 1   
    27    13    15 1   
    28    13    36 1   
    29    13    37 1   
    30    14    16 1   
    31    14    38 1   
    32    14    39 1   
    33    15    17 1   
    34    15    40 1   
    35    15    41 1   
    36    16    18 1   
    37    16    42 1   
    38    16    43 1   
    39    17    18 1   
    40    17    44 1   
    41    17    45 1   
    42    18    20 1   
    43    18    21 1   
    44    19    46 1   
    45    19    47 1   
    46    19    48 1   
    47    20    22 1   
    48    20    49 1   
    49    20    50 1   
    50    21    25 1   
    51    21    51 1   
    52    21    52 1   
    53    22    26 1   
    54    22    53 1   
    55    22    54 1   
    56    24    55 1   
    57    24    56 1   
    58    24    59 1   
    59    25    57 1   
    60    26    58 1   
    61    28    59 2   
@<TRIPOS>SUBSTRUCTURE
     1 4GZ         1 TEMP              0 ****  ****    0 ROOT
