@<TRIPOS>MOLECULE
4GZ
   59    61     1     0     0
SMALL
abcg2


@<TRIPOS>ATOM
      1 C4           5.4140    -3.0080     1.2310 ca         1 4GZ      -0.116000
      2 C5           4.6430    -1.8670     1.0600 ca         1 4GZ      -0.094000
      3 C18         -5.2260    -0.9700     0.9260 ca         1 4GZ       0.023000
      4 C3           6.6430    -3.1230     0.5980 ca         1 4GZ      -0.091000
      5 C17         -4.1030    -0.1830     0.8840 ca         1 4GZ      -0.255000
      6 C7           6.3570    -0.9480    -0.3550 ca         1 4GZ      -0.059000
      7 C20         -4.6290    -1.8470    -1.1920 ca         1 4GZ       0.422900
      8 C6           5.1120    -0.8300     0.2570 ca         1 4GZ      -0.147600
      9 C19         -5.5180    -1.8490    -0.1220 ca         1 4GZ      -0.281600
     10 C2           7.1300    -2.0950    -0.2070 ca         1 4GZ      -0.082300
     11 C16         -3.2610    -0.2730    -0.2460 ca         1 4GZ       0.639900
     12 C8           4.3390     0.4330     0.0470 c          1 4GZ       0.610700
     13 C27         -1.1560     4.9710    -0.3210 c6         1 4GZ      -0.076400
     14 C26         -1.4440     3.8730    -1.3400 c6         1 4GZ      -0.074900
     15 C28         -1.0890     4.4250     1.1010 c6         1 4GZ      -0.074900
     16 C25         -0.4300     2.7400    -1.2140 c6         1 4GZ      -0.072400
     17 C29         -0.1130     3.2530     1.2060 c6         1 4GZ      -0.072400
     18 C13         -0.3860     2.1250     0.1950 c6         1 4GZ      -0.047000
     19 C1           8.4460    -2.2300    -0.9180 c3         1 4GZ      -0.047800
     20 C12          0.6960     1.0340     0.3010 c3         1 4GZ      -0.093400
     21 C14         -1.7280     1.4750     0.5710 c3         1 4GZ       0.234800
     22 C11          2.1120     1.4480    -0.0750 c3         1 4GZ       0.105000
     23 N21         -3.5450    -1.0960    -1.2650 nb         1 4GZ      -0.771000
     24 N23         -6.8440    -3.6960    -0.9250 nt         1 4GZ      -0.608000
     25 N15         -2.1370     0.4540    -0.3640 nu         1 4GZ      -0.934100
     26 N10          3.0040     0.3240     0.1280 ns         1 4GZ      -0.506900
     27 O9           4.9020     1.4960    -0.1870 o          1 4GZ      -0.603100
     28 O24         -7.6400    -2.4140     0.7450 o          1 4GZ      -0.615100
     29 H1           5.0570    -3.8070     1.8670 ha         1 4GZ       0.116000
     30 H2           3.6980    -1.7860     1.5830 ha         1 4GZ       0.112000
     31 H3          -5.8870    -0.9100     1.7810 ha         1 4GZ       0.138000
     32 H4           7.2350    -4.0200     0.7360 ha         1 4GZ       0.114000
     33 H5          -3.8760     0.4920     1.6970 ha         1 4GZ       0.125000
     34 H6           6.7280    -0.1340    -0.9660 ha         1 4GZ       0.133000
     35 H7          -4.8050    -2.4710    -2.0630 h4         1 4GZ       0.009100
     36 H8          -0.1960     5.4370    -0.5700 hc         1 4GZ       0.042700
     37 H9          -1.9090     5.7600    -0.3880 hc         1 4GZ       0.042700
     38 H10         -2.4630     3.4940    -1.2120 hc         1 4GZ       0.042450
     39 H11         -1.4020     4.2830    -2.3510 hc         1 4GZ       0.042450
     40 H12         -0.7730     5.2140     1.7880 hc         1 4GZ       0.042450
     41 H13         -2.0880     4.1250     1.4310 hc         1 4GZ       0.042450
     42 H14         -0.6090     1.9770    -1.9790 hc         1 4GZ       0.045450
     43 H15          0.5580     3.1480    -1.4480 hc         1 4GZ       0.045450
     44 H16          0.8970     3.6360     1.0360 hc         1 4GZ       0.045450
     45 H17         -0.1170     2.8440     2.2220 hc         1 4GZ       0.045450
     46 H18          8.3110    -2.6920    -1.8980 hc         1 4GZ       0.045033
     47 H19          8.9140    -1.2600    -1.0800 hc         1 4GZ       0.045033
     48 H20          9.1410    -2.8540    -0.3580 hc         1 4GZ       0.045033
     49 H21          0.7060     0.6610     1.3310 hc         1 4GZ       0.047700
     50 H22          0.4100     0.1850    -0.3290 hc         1 4GZ       0.047700
     51 H23         -1.6200     1.0380     1.5710 h1         1 4GZ       0.046200
     52 H24         -2.5110     2.2330     0.6530 h1         1 4GZ       0.046200
     53 H25          2.1600     1.7760    -1.1170 h1         1 4GZ       0.053700
     54 H26          2.4530     2.2830     0.5380 h1         1 4GZ       0.053700
     55 H27         -6.0790    -4.0000    -1.5000 hn         1 4GZ       0.312000
     56 H28         -7.6680    -4.2740    -0.9220 hn         1 4GZ       0.312000
     57 H29         -1.6520     0.3680    -1.2420 hn         1 4GZ       0.504000
     58 H30          2.5930    -0.5950     0.1650 hn         1 4GZ       0.314500
     59 C22         -6.7510    -2.6720    -0.0590 c          1 4GZ       0.633700
@<TRIPOS>BOND
     1     1     2 ar  
     2     1     4 ar  
     3     1    29 1   
     4     2     8 ar  
     5     2    30 1   
     6     3     5 ar  
     7     3     9 ar  
     8     3    31 1   
     9     4    10 ar  
    10     4    32 1   
    11     5    11 ar  
    12     5    33 1   
    13     6     8 ar  
    14     6    10 ar  
    15     6    34 1   
    16     7     9 ar  
    17     7    23 ar  
    18     7    35 1   
    19     8    12 1   
    20     9    59 1   
    21    10    19 1   
    22    11    23 ar  
    23    11    25 1   
    24    12    26 1   
    25    12    27 2   
    26    13    14 1   
    27    13    15 1   
    28    13    36 1   
    29    13    37 1   
    30    14    16 1   
    31    14    38 1   
    32    14    39 1   
    33    15    17 1   
    34    15    40 1   
    35    15    41 1   
    36    16    18 1   
    37    16    42 1   
    38    16    43 1   
    39    17    18 1   
    40    17    44 1   
    41    17    45 1   
    42    18    20 1   
    43    18    21 1   
    44    19    46 1   
    45    19    47 1   
    46    19    48 1   
    47    20    22 1   
    48    20    49 1   
    49    20    50 1   
    50    21    25 1   
    51    21    51 1   
    52    21    52 1   
    53    22    26 1   
    54    22    53 1   
    55    22    54 1   
    56    24    55 1   
    57    24    56 1   
    58    24    59 1   
    59    25    57 1   
    60    26    58 1   
    61    28    59 2   
@<TRIPOS>SUBSTRUCTURE
     1 4GZ         1 TEMP              0 ****  ****    0 ROOT
