@<TRIPOS>MOLECULE
4H0
   28    28     1     0     0
SMALL
bcc


@<TRIPOS>ATOM
      1 N            3.9060    -1.3250    40.5500 n8         1 4H0      -0.896800
      2 CA           3.0790    -1.9830    39.5560 c3         1 4H0       0.096500
      3 CB           3.1310    -1.2060    38.2370 c3         1 4H0      -0.219400
      4 CG           2.5050     0.2110    38.2800 c          1 4H0       0.937600
      5 OD1          2.6840     0.8950    37.2580 o          1 4H0      -0.837800
      6 OD2          1.8710     0.5320    39.3050 o          1 4H0      -0.837800
      7 C            3.5920    -3.3710    39.2530 c          1 4H0       0.544100
      8 O            2.8550    -4.2720    38.9220 o          1 4H0      -0.545100
      9 C5           5.0930    -3.6200    39.3510 c3         1 4H0       0.041400
     10 H            3.5700    -0.3740    40.6410 hn         1 4H0       0.353800
     11 HA           2.0260    -2.0880    39.8500 h1         1 4H0       0.061700
     12 HB2          4.1700    -1.1220    37.9010 hc         1 4H0       0.032700
     13 HB3          2.6070    -1.7720    37.4610 hc         1 4H0       0.032700
     14 H2           3.7730    -1.7540    41.4560 hn         1 4H0       0.353800
     15 O4           5.4250    -3.9750    40.7000 os         1 4H0      -0.296900
     16 H5           5.3800    -4.4120    38.6540 h1         1 4H0       0.078200
     17 H8           5.6670    -2.7230    39.1330 h1         1 4H0       0.078200
     18 C6           5.0290    -5.1970    41.1060 ca         1 4H0       0.088100
     19 C7           3.8880    -5.3430    41.8840 ca         1 4H0       0.091400
     20 C8           3.5090    -6.5870    42.3510 ca         1 4H0       0.113900
     21 C9           4.2480    -7.7140    42.0530 ca         1 4H0      -0.186000
     22 C10          5.3820    -7.5710    41.2790 ca         1 4H0       0.113900
     23 C11          5.7750    -6.3320    40.8090 ca         1 4H0       0.091400
     24 F1           3.1550    -4.2710    42.1790 f          1 4H0      -0.105400
     25 F2           2.4070    -6.6860    43.0930 f          1 4H0      -0.122900
     26 H9           3.9470    -8.6860    42.4210 ha         1 4H0       0.166000
     27 F3           6.1210    -8.6380    40.9780 f          1 4H0      -0.122900
     28 F4           6.8800    -6.2160    40.0760 f          1 4H0      -0.105400
@<TRIPOS>BOND
     1     1     2 1   
     2     1    10 1   
     3     1    14 1   
     4     2     3 1   
     5     2     7 1   
     6     2    11 1   
     7     3     4 1   
     8     3    12 1   
     9     3    13 1   
    10     4     5 1   
    11     4     6 1   
    12     7     8 2   
    13     7     9 1   
    14     9    15 1   
    15     9    16 1   
    16     9    17 1   
    17    15    18 1   
    18    18    19 ar  
    19    18    23 ar  
    20    19    20 ar  
    21    19    24 1   
    22    20    21 ar  
    23    20    25 1   
    24    21    22 ar  
    25    21    26 1   
    26    22    23 ar  
    27    22    27 1   
    28    23    28 1   
@<TRIPOS>SUBSTRUCTURE
     1 4H0         1 TEMP              0 ****  ****    0 ROOT
