@<TRIPOS>MOLECULE
4H1
   41    42     1     0     0
SMALL
bcc


@<TRIPOS>ATOM
      1 C12          3.4000     1.0410    -0.5920 ca         1 4H1       0.004000
      2 C11          2.0420     0.9140    -0.4340 ca         1 4H1      -0.336300
      3 C14          3.6720    -1.0490     0.4880 ca         1 4H1       0.489200
      4 C13          4.2690     0.0520    -0.1170 ca         1 4H1      -0.346900
      5 C10          1.5460    -0.2460     0.1980 ca         1 4H1       0.707200
      6 C16          5.7300     0.2140    -0.3120 c          1 4H1       0.699700
      7 C5          -3.8090    -1.8680    -0.6780 c6         1 4H1      -0.075400
      8 C4          -4.8970    -0.8040    -0.7470 c6         1 4H1      -0.066400
      9 C6          -2.4180    -1.2580    -0.8100 c6         1 4H1      -0.072400
     10 C19         -3.2880     0.8920     0.1560 c6         1 4H1      -0.070400
     11 C3          -4.6850     0.2900     0.2960 c6         1 4H1      -0.057700
     12 C7          -2.1890    -0.1650     0.2340 c6         1 4H1      -0.074700
     13 C2          -5.7440     1.3830     0.2210 c3         1 4H1       0.152800
     14 C8          -0.8180     0.4860     0.1010 c3         1 4H1       0.232800
     15 N15          2.3700    -1.2040     0.6440 nb         1 4H1      -0.770000
     16 N17          6.5340    -0.6130     0.3790 nt         1 4H1      -0.672000
     17 N1          -7.0800     0.8640     0.4680 n8         1 4H1      -0.885800
     18 N9           0.2310    -0.4670     0.3760 nu         1 4H1      -0.874900
     19 O18          6.1730     1.0610    -1.0800 o          1 4H1      -0.616100
     20 H1           3.7980     1.9220    -1.0780 ha         1 4H1       0.155000
     21 H2           1.3770     1.6890    -0.7880 ha         1 4H1       0.143000
     22 H3           4.2710    -1.8740     0.8620 h4         1 4H1       0.009100
     23 H4          -3.8790    -2.4040     0.2750 hc         1 4H1       0.040700
     24 H5          -3.9620    -2.6150    -1.4610 hc         1 4H1       0.040700
     25 H6          -4.8910    -0.3430    -1.7430 hc         1 4H1       0.050700
     26 H7          -5.8830    -1.2530    -0.6200 hc         1 4H1       0.050700
     27 H8          -1.6580    -2.0380    -0.7230 hc         1 4H1       0.045200
     28 H9          -2.3020    -0.8230    -1.8100 hc         1 4H1       0.045200
     29 H10         -3.2190     1.4220    -0.8040 hc         1 4H1       0.039700
     30 H11         -3.1300     1.6430     0.9360 hc         1 4H1       0.039700
     31 H12         -4.7460    -0.1720     1.2930 hc         1 4H1       0.043700
     32 H13         -2.2460    -0.6260     1.2310 hc         1 4H1       0.048700
     33 H14         -5.4590     2.1920     0.9120 h1         1 4H1       0.027200
     34 H15         -5.7270     1.8200    -0.7820 h1         1 4H1       0.027200
     35 H16         -0.7050     0.8780    -0.9150 h1         1 4H1       0.043200
     36 H17         -0.7530     1.3440     0.7820 h1         1 4H1       0.043200
     37 H18          6.2040    -1.1990     1.1250 hn         1 4H1       0.310500
     38 H19          7.5320    -0.5080     0.2980 hn         1 4H1       0.310500
     39 H20         -7.1520     0.5770     1.4360 hn         1 4H1       0.337800
     40 H21         -7.7580     1.6070     0.3530 hn         1 4H1       0.337800
     41 H23         -0.0010    -1.2690     0.9400 hn         1 4H1       0.444800
@<TRIPOS>BOND
     1     1     2 ar  
     2     1     4 ar  
     3     1    20 1   
     4     2     5 ar  
     5     2    21 1   
     6     3     4 ar  
     7     3    15 ar  
     8     3    22 1   
     9     4     6 1   
    10     5    15 ar  
    11     5    18 1   
    12     6    16 1   
    13     6    19 2   
    14     7     8 1   
    15     7     9 1   
    16     7    23 1   
    17     7    24 1   
    18     8    11 1   
    19     8    25 1   
    20     8    26 1   
    21     9    12 1   
    22     9    27 1   
    23     9    28 1   
    24    10    11 1   
    25    10    12 1   
    26    10    29 1   
    27    10    30 1   
    28    11    13 1   
    29    11    31 1   
    30    12    14 1   
    31    12    32 1   
    32    13    17 1   
    33    13    33 1   
    34    13    34 1   
    35    14    18 1   
    36    14    35 1   
    37    14    36 1   
    38    16    37 1   
    39    16    38 1   
    40    17    39 1   
    41    17    40 1   
    42    18    41 1   
@<TRIPOS>SUBSTRUCTURE
     1 4H1         1 TEMP              0 ****  ****    0 ROOT
