@<TRIPOS>MOLECULE
4H1
   41    42     1     0     0
SMALL
No Charge or Current Charge


@<TRIPOS>ATOM
      1 C12          3.5710     1.2950    -0.2630 ca         1 4H1       0.022000
      2 C11          2.1780     1.1800    -0.1670 ca         1 4H1      -0.253000
      3 C14          3.6910    -1.0440     0.3370 ca         1 4H1       0.423900
      4 C13          4.3510     0.1500    -0.0040 ca         1 4H1      -0.281600
      5 C10          1.6350    -0.0600     0.1780 ca         1 4H1       0.641900
      6 C16          5.8440     0.2160    -0.0920 c          1 4H1       0.632700
      7 C5          -3.8220    -1.9840    -0.4460 c6         1 4H1      -0.075400
      8 C4          -4.9610    -0.9510    -0.6240 c6         1 4H1      -0.066400
      9 C6          -2.4380    -1.3500    -0.7250 c6         1 4H1      -0.072400
     10 C19         -3.3450     0.9260    -0.0140 c6         1 4H1      -0.070400
     11 C3          -4.7400     0.3020     0.2730 c6         1 4H1      -0.057700
     12 C7          -2.1930    -0.1030     0.1740 c6         1 4H1      -0.074700
     13 C2          -5.8670     1.3650     0.1000 c3         1 4H1       0.152800
     14 C8          -0.8100     0.5600    -0.0990 c3         1 4H1       0.232800
     15 N15          2.3480    -1.1510     0.4280 nb         1 4H1      -0.770000
     16 N17          6.5580    -0.8990     0.1630 nt         1 4H1      -0.605000
     17 N1          -7.2110     0.8920     0.4890 n8         1 4H1      -0.996200
     18 N9           0.3030    -0.3040     0.3080 nu         1 4H1      -0.930100
     19 O18          6.4330     1.2420    -0.3850 o          1 4H1      -0.616100
     20 H1           4.0270     2.2470    -0.5300 ha         1 4H1       0.137000
     21 H2           1.5390     2.0360    -0.3550 ha         1 4H1       0.125000
     22 H3           4.2430    -1.9590     0.5480 h4         1 4H1       0.009100
     23 H4          -3.8450    -2.3870     0.5760 hc         1 4H1       0.040700
     24 H5          -3.9840    -2.8360    -1.1200 hc         1 4H1       0.040700
     25 H6          -5.0220    -0.6480    -1.6790 hc         1 4H1       0.050700
     26 H7          -5.9210    -1.4280    -0.3830 hc         1 4H1       0.050700
     27 H8          -1.6570    -2.1030    -0.5580 hc         1 4H1       0.045200
     28 H9          -2.3720    -1.0650    -1.7850 hc         1 4H1       0.045200
     29 H10         -3.3220     1.3240    -1.0390 hc         1 4H1       0.039700
     30 H11         -3.1830     1.7840     0.6540 hc         1 4H1       0.039700
     31 H12         -4.7650    -0.0120     1.3270 hc         1 4H1       0.043700
     32 H13         -2.1870    -0.4180     1.2270 hc         1 4H1       0.048700
     33 H14         -5.6240     2.2420     0.7170 h1         1 4H1       0.027200
     34 H15         -5.9000     1.6870    -0.9500 h1         1 4H1       0.027200
     35 H16         -0.7340     0.7990    -1.1690 h1         1 4H1       0.043200
     36 H17         -0.7580     1.5050     0.4600 h1         1 4H1       0.043200
     37 H18          6.0960    -1.7620     0.4080 hn         1 4H1       0.310500
     38 H19          7.5640    -0.8580     0.1050 hn         1 4H1       0.310500
     39 H20         -7.2070     0.6680     1.4910 hn         1 4H1       0.393000
     40 H21         -7.8730     1.6740     0.4200 hn         1 4H1       0.393000
     41 H23          0.1100    -1.2790     0.5120 hn         1 4H1       0.500000
@<TRIPOS>BOND
     1     1     2 ar  
     2     1     4 ar  
     3     1    20 1   
     4     2     5 ar  
     5     2    21 1   
     6     3     4 ar  
     7     3    15 ar  
     8     3    22 1   
     9     4     6 1   
    10     5    15 ar  
    11     5    18 1   
    12     6    16 1   
    13     6    19 2   
    14     7     8 1   
    15     7     9 1   
    16     7    23 1   
    17     7    24 1   
    18     8    11 1   
    19     8    25 1   
    20     8    26 1   
    21     9    12 1   
    22     9    27 1   
    23     9    28 1   
    24    10    11 1   
    25    10    12 1   
    26    10    29 1   
    27    10    30 1   
    28    11    13 1   
    29    11    31 1   
    30    12    14 1   
    31    12    32 1   
    32    13    17 1   
    33    13    33 1   
    34    13    34 1   
    35    14    18 1   
    36    14    35 1   
    37    14    36 1   
    38    16    37 1   
    39    16    38 1   
    40    17    39 1   
    41    17    40 1   
    42    18    41 1   
@<TRIPOS>SUBSTRUCTURE
     1 4H1         1 TEMP              0 ****  ****    0 ROOT
