@<TRIPOS>MOLECULE
4H2
   15    15     1     0     0
SMALL
No Charge or Current Charge


@<TRIPOS>ATOM
      1 C6           2.7520     1.4490    -0.0080 c3         1 4H2      -0.062900
      2 C3           1.5780     0.5080    -0.0090 cc         1 4H2       0.007800
      3 C2           0.2630     0.9050    -0.0680 cd         1 4H2      -0.256200
      4 C1          -0.8500    -0.0070    -0.0680 cs         1 4H2       0.362600
      5 S1          -2.4280     0.5400    -0.1410 s          1 4H2      -0.611400
      6 N1          -0.5590    -1.3530    -0.0050 ns         1 4H2      -0.261100
      7 C5           0.7620    -1.7890     0.0550 cd         1 4H2      -0.061400
      8 C4           1.8140    -0.8990     0.0540 cc         1 4H2      -0.263000
      9 H1           3.3480     1.3280     0.9040 hc         1 4H2       0.054700
     10 H2           3.4060     1.2580    -0.8680 hc         1 4H2       0.054700
     11 H3           2.4280     2.4960    -0.0600 hc         1 4H2       0.054700
     12 H4           0.0150     1.9590    -0.1170 ha         1 4H2       0.220000
     13 H6           0.8760    -2.8710     0.1010 h4         1 4H2       0.209000
     14 H7           2.8400    -1.2600     0.1020 ha         1 4H2       0.204000
     15 H5          -1.3410    -2.0010    -0.0050 hn         1 4H2       0.349500
@<TRIPOS>BOND
     1     1     2 1   
     2     1     9 1   
     3     1    10 1   
     4     1    11 1   
     5     2     3 2   
     6     2     8 1   
     7     3     4 1   
     8     3    12 1   
     9     4     5 2   
    10     4     6 1   
    11     6     7 1   
    12     6    15 1   
    13     7     8 2   
    14     7    13 1   
    15     8    14 1   
@<TRIPOS>SUBSTRUCTURE
     1 4H2         1 TEMP              0 ****  ****    0 ROOT
