@<TRIPOS>MOLECULE
4H2
   15    15     1     0     0
SMALL
bcc


@<TRIPOS>ATOM
      1 C6           2.7160     1.4340    -0.0090 c3         1 4H2      -0.062900
      2 C3           1.5690     0.4770    -0.0070 cc         1 4H2       0.007800
      3 C2           0.2690     0.9160    -0.0690 cd         1 4H2      -0.206200
      4 C1          -0.8300     0.0240    -0.0710 cs         1 4H2       0.429600
      5 S1          -2.4470     0.4890    -0.1450 s          1 4H2      -0.611400
      6 N1          -0.4990    -1.2940    -0.0060 ns         1 4H2      -0.328100
      7 C5           0.7610    -1.7670     0.0570 cd         1 4H2      -0.011400
      8 C4           1.8180    -0.9140     0.0590 cc         1 4H2      -0.213000
      9 H1           3.3290     1.3000     0.8830 hc         1 4H2       0.054700
     10 H2           3.3630     1.2550    -0.8690 hc         1 4H2       0.054700
     11 H3           2.3800     2.4680    -0.0430 hc         1 4H2       0.054700
     12 H4           0.0540     1.9740    -0.1200 ha         1 4H2       0.170000
     13 H6           0.8600    -2.8410     0.1040 h4         1 4H2       0.159000
     14 H7           2.8250    -1.3030     0.1100 ha         1 4H2       0.154000
     15 H5          -1.2640    -1.9560    -0.0060 hn         1 4H2       0.349500
@<TRIPOS>BOND
     1     1     2 1   
     2     1     9 1   
     3     1    10 1   
     4     1    11 1   
     5     2     3 2   
     6     2     8 1   
     7     3     4 1   
     8     3    12 1   
     9     4     5 2   
    10     4     6 1   
    11     6     7 1   
    12     6    15 1   
    13     7     8 2   
    14     7    13 1   
    15     8    14 1   
@<TRIPOS>SUBSTRUCTURE
     1 4H2         1 TEMP              0 ****  ****    0 ROOT
