@<TRIPOS>MOLECULE
4H3
   35    36     1     0     0
SMALL
bcc


@<TRIPOS>ATOM
      1 C5           2.7660     0.8470     0.7310 ca         1 4H3       0.002000
      2 C6           1.4310     0.5390     0.7980 ca         1 4H3      -0.332300
      3 C18          3.1150    -1.1580    -0.4810 ca         1 4H3       0.485200
      4 C4           3.6570     0.0020     0.0620 ca         1 4H3      -0.341900
      5 C7           0.9850    -0.6590     0.2010 ca         1 4H3       0.701200
      6 C2           5.0950     0.3600    -0.0020 c          1 4H3       0.698700
      7 C16         -2.6820    -1.0450     0.8430 c5         1 4H3      -0.090400
      8 C10         -1.7770     0.9360    -0.2770 c5         1 4H3      -0.153400
      9 C13         -3.8160    -0.1160     0.4110 c5         1 4H3      -0.067700
     10 C9          -1.3970    -0.2180     0.6830 c5         1 4H3       0.239500
     11 C11         -3.1850     0.6020    -0.7790 c5         1 4H3       0.155100
     12 C14         -5.0890    -0.8890     0.1400 c3         1 4H3       0.154400
     13 N17          1.8370    -1.4870    -0.4190 nb         1 4H3      -0.766000
     14 N1           5.8350    -0.2720    -0.9300 nt         1 4H3      -0.673000
     15 N8          -0.3050    -1.0510     0.2340 nu         1 4H3      -0.868900
     16 O3           5.5740     1.1890     0.7640 o          1 4H3      -0.612100
     17 O12         -3.9290     1.7230    -1.1820 oh         1 4H3      -0.568800
     18 O15         -6.1450    -0.0090    -0.1730 oh         1 4H3      -0.577800
     19 H1           3.1250     1.7600     1.1880 ha         1 4H3       0.156000
     20 H2           0.7460     1.2060     1.3020 ha         1 4H3       0.145000
     21 H3           3.7470    -1.8830    -0.9840 h4         1 4H3       0.011100
     22 H4          -2.8050    -1.4300     1.8550 hc         1 4H3       0.054700
     23 H5          -2.6560    -1.9110     0.1720 hc         1 4H3       0.054700
     24 H6          -1.8150     1.8800     0.2720 hc         1 4H3       0.061700
     25 H7          -1.0520     1.0550    -1.0840 hc         1 4H3       0.061700
     26 H8          -3.9980     0.6200     1.2040 hc         1 4H3       0.079700
     27 H9          -1.1220     0.1940     1.6550 h1         1 4H3       0.067700
     28 H10         -3.1040    -0.1280    -1.6020 h1         1 4H3       0.027700
     29 H11         -4.8990    -1.5990    -0.6790 h1         1 4H3       0.014700
     30 H12         -5.3260    -1.4910     1.0280 h1         1 4H3       0.014700
     31 H13          5.4260    -0.8190    -1.6670 hn         1 4H3       0.311500
     32 H14          6.8100    -0.0410    -1.0260 hn         1 4H3       0.311500
     33 H15         -0.5270    -1.8550    -0.3340 hn         1 4H3       0.442800
     34 H16         -3.4720     2.1310    -1.9240 ho         1 4H3       0.402000
     35 H17         -6.9500    -0.5300    -0.2390 ho         1 4H3       0.400000
@<TRIPOS>BOND
     1     1     2 ar  
     2     1     4 ar  
     3     1    19 1   
     4     2     5 ar  
     5     2    20 1   
     6     3     4 ar  
     7     3    13 ar  
     8     3    21 1   
     9     4     6 1   
    10     5    13 ar  
    11     5    15 1   
    12     6    14 1   
    13     6    16 2   
    14     7     9 1   
    15     7    10 1   
    16     7    22 1   
    17     7    23 1   
    18     8    10 1   
    19     8    11 1   
    20     8    24 1   
    21     8    25 1   
    22     9    11 1   
    23     9    12 1   
    24     9    26 1   
    25    10    15 1   
    26    10    27 1   
    27    11    17 1   
    28    11    28 1   
    29    12    18 1   
    30    12    29 1   
    31    12    30 1   
    32    14    31 1   
    33    14    32 1   
    34    15    33 1   
    35    17    34 1   
    36    18    35 1   
@<TRIPOS>SUBSTRUCTURE
     1 4H3         1 TEMP              0 ****  ****    0 ROOT
