@<TRIPOS>MOLECULE
4H3
   35    36     1     0     0
SMALL
No Charge or Current Charge


@<TRIPOS>ATOM
      1 C5           2.7240     0.7660     1.1900 ca         1 4H3       0.020000
      2 C6           1.4190     0.2940     1.3780 ca         1 4H3      -0.249000
      3 C18          2.9230    -0.8340    -0.6110 ca         1 4H3       0.419900
      4 C4           3.4990     0.1900     0.1640 ca         1 4H3      -0.276600
      5 C7           0.9450    -0.7110     0.5300 ca         1 4H3       0.635900
      6 C2           4.9010     0.6550    -0.0800 c          1 4H3       0.631700
      7 C16         -2.6600    -1.1120     0.8620 c5         1 4H3      -0.090400
      8 C10         -1.6040     0.0870    -0.8710 c5         1 4H3      -0.153400
      9 C13         -3.7350    -0.0870     0.3930 c5         1 4H3      -0.067700
     10 C9          -1.3790    -0.2900     0.6110 c5         1 4H3       0.239500
     11 C11         -3.0680     0.6200    -0.8480 c5         1 4H3       0.178300
     12 C14         -5.1160    -0.7310     0.1170 c3         1 4H3       0.177600
     13 N17          1.6640    -1.2860    -0.4270 nb         1 4H3      -0.766000
     14 N1           5.6120     0.0770    -1.0700 nt         1 4H3      -0.606000
     15 N8          -0.2870    -1.2910     0.6170 nu         1 4H3      -0.924100
     16 O3           5.4180     1.5360     0.5850 o          1 4H3      -0.612100
     17 O12         -3.0810     2.0400    -0.7090 oh         1 4H3      -0.631000
     18 O15         -6.0860     0.2660    -0.2210 oh         1 4H3      -0.640000
     19 H1           3.1230     1.5530     1.8300 ha         1 4H3       0.138000
     20 H2           0.7970     0.6950     2.1710 ha         1 4H3       0.127000
     21 H3           3.4780    -1.3230    -1.4100 h4         1 4H3       0.011100
     22 H4          -2.7800    -1.3910     1.9150 hc         1 4H3       0.054700
     23 H5          -2.6990    -2.0350     0.2690 hc         1 4H3       0.054700
     24 H6          -0.8820     0.8290    -1.2300 hc         1 4H3       0.061700
     25 H7          -1.5290    -0.7800    -1.5400 hc         1 4H3       0.061700
     26 H8          -3.9000     0.6440     1.1940 hc         1 4H3       0.079700
     27 H9          -1.2720     0.5680     1.2930 h1         1 4H3       0.067700
     28 H10         -3.5780     0.3400    -1.7810 h1         1 4H3       0.027700
     29 H11         -5.0160    -1.4580    -0.7000 h1         1 4H3       0.014700
     30 H12         -5.4370    -1.2760     1.0140 h1         1 4H3       0.014700
     31 H13          5.2100    -0.6530    -1.6350 hn         1 4H3       0.311500
     32 H14          6.5580     0.3890    -1.2360 hn         1 4H3       0.311500
     33 H15         -0.3220    -2.0450    -0.0610 hn         1 4H3       0.498000
     34 H16         -2.8050     2.4110    -1.5740 ho         1 4H3       0.441000
     35 H17         -6.9370    -0.2030    -0.3670 ho         1 4H3       0.439000
@<TRIPOS>BOND
     1     1     2 ar  
     2     1     4 ar  
     3     1    19 1   
     4     2     5 ar  
     5     2    20 1   
     6     3     4 ar  
     7     3    13 ar  
     8     3    21 1   
     9     4     6 1   
    10     5    13 ar  
    11     5    15 1   
    12     6    14 1   
    13     6    16 2   
    14     7     9 1   
    15     7    10 1   
    16     7    22 1   
    17     7    23 1   
    18     8    10 1   
    19     8    11 1   
    20     8    24 1   
    21     8    25 1   
    22     9    11 1   
    23     9    12 1   
    24     9    26 1   
    25    10    15 1   
    26    10    27 1   
    27    11    17 1   
    28    11    28 1   
    29    12    18 1   
    30    12    29 1   
    31    12    30 1   
    32    14    31 1   
    33    14    32 1   
    34    15    33 1   
    35    17    34 1   
    36    18    35 1   
@<TRIPOS>SUBSTRUCTURE
     1 4H3         1 TEMP              0 ****  ****    0 ROOT
