@<TRIPOS>MOLECULE
4H4
   35    37     1     0     0
SMALL
abcg2


@<TRIPOS>ATOM
      1 C14         -1.5400     0.4460    -1.1660 ca         1 4H4      -0.127500
      2 C18         -1.8420     1.0210     1.1430 ca         1 4H4      -0.127500
      3 C15         -2.7970    -0.1270    -1.2000 ca         1 4H4      -0.004000
      4 C17         -3.1030     0.4470     1.1260 ca         1 4H4      -0.004000
      5 C13         -1.0400     1.0270     0.0020 ca         1 4H4       0.015700
      6 C16         -3.5720    -0.1250    -0.0460 ca         1 4H4      -0.275500
      7 C6           4.5210    -0.1350     0.2380 cc         1 4H4       0.136500
      8 C2           5.2410    -1.2700    -0.2610 cc         1 4H4       0.516900
      9 C7           3.0620    -0.0230     0.4730 c          1 4H4       0.537600
     10 C11          0.7040     2.7600     0.8830 cx         1 4H4      -0.120400
     11 C12          0.3150     1.6140    -0.0110 cx         1 4H4      -0.091400
     12 C10          1.2490     1.4080     1.1580 cx         1 4H4       0.059700
     13 N5           5.3730     0.8090     0.4670 nd         1 4H4      -0.307300
     14 N3           6.5020    -0.9420    -0.3000 nd         1 4H4      -0.436300
     15 N1           4.7390    -2.4490    -0.6770 nv         1 4H4      -1.035900
     16 N20         -4.8190    -2.4500    -0.1900 n8         1 4H4      -0.999100
     17 N9           2.6270     1.1710     0.8950 ns         1 4H4      -0.463900
     18 O8           2.3430    -0.9900     0.2810 o          1 4H4      -0.592100
     19 O21         -5.8730    -0.4860     1.1390 o          1 4H4      -0.544500
     20 O22         -5.8320    -0.5110    -1.3590 o          1 4H4      -0.544500
     21 O4           6.5650     0.3420     0.1460 os         1 4H4       0.121600
     22 S19         -5.1860    -0.8400    -0.0960 sy         1 4H4       1.124600
     23 H1          -0.9350     0.4470    -2.0640 ha         1 4H4       0.118000
     24 H2          -1.4950     1.4700     2.0650 ha         1 4H4       0.118000
     25 H3          -3.1620    -0.5680    -2.1170 ha         1 4H4       0.137500
     26 H4          -3.7080     0.4530     2.0230 ha         1 4H4       0.137500
     27 H5           1.3670     3.5040     0.4580 hc         1 4H4       0.085200
     28 H6          -0.0320     3.1560     1.5710 hc         1 4H4       0.085200
     29 H7           0.7960     1.6060    -0.9810 hc         1 4H4       0.096700
     30 H8           0.8450     0.8680     2.0100 h1         1 4H4       0.099700
     31 H9           3.8240    -2.6940    -0.3400 hn         1 4H4       0.497500
     32 H10          5.3820    -3.2160    -0.7850 hn         1 4H4       0.497500
     33 H11         -4.4630    -2.8200     0.6860 hn         1 4H4       0.472000
     34 H12         -5.6220    -2.9930    -0.4960 hn         1 4H4       0.472000
     35 H13          3.2880     1.9150     1.0590 hn         1 4H4       0.343500
@<TRIPOS>BOND
     1     1     3 ar  
     2     1     5 ar  
     3     1    23 1   
     4     2     4 ar  
     5     2     5 ar  
     6     2    24 1   
     7     3     6 ar  
     8     3    25 1   
     9     4     6 ar  
    10     4    26 1   
    11     5    11 1   
    12     6    22 1   
    13     7     8 1   
    14     7     9 1   
    15     7    13 2   
    16     8    14 2   
    17     8    15 1   
    18     9    17 1   
    19     9    18 2   
    20    10    11 1   
    21    10    12 1   
    22    10    27 1   
    23    10    28 1   
    24    11    12 1   
    25    11    29 1   
    26    12    17 1   
    27    12    30 1   
    28    13    21 1   
    29    14    21 1   
    30    15    31 1   
    31    15    32 1   
    32    16    22 1   
    33    16    33 1   
    34    16    34 1   
    35    17    35 1   
    36    19    22 2   
    37    20    22 2   
@<TRIPOS>SUBSTRUCTURE
     1 4H4         1 TEMP              0 ****  ****    0 ROOT
