@<TRIPOS>MOLECULE
4H4
   35    37     1     0     0
SMALL
No Charge or Current Charge


@<TRIPOS>ATOM
      1 C14         -1.7220     0.7000    -1.2750 ca         1 4H4      -0.127500
      2 C18         -1.8520     0.7520     1.1490 ca         1 4H4      -0.127500
      3 C15         -3.0190     0.1640    -1.3380 ca         1 4H4      -0.004000
      4 C17         -3.1500     0.2160     1.0940 ca         1 4H4      -0.004000
      5 C13         -1.1240     1.0000    -0.0350 ca         1 4H4       0.015700
      6 C16         -3.7390    -0.0810    -0.1520 ca         1 4H4      -0.275500
      7 C6           4.6560    -0.0850     0.1390 cc         1 4H4       0.136500
      8 C2           5.4470    -1.2120    -0.1620 cc         1 4H4       0.516900
      9 C7           3.2130    -0.1710     0.4960 c          1 4H4       0.537600
     10 C11          0.6800     2.6400     0.9940 cx         1 4H4      -0.120400
     11 C12          0.2710     1.5760    -0.0010 cx         1 4H4      -0.091400
     12 C10          1.2500     1.2480     1.1050 cx         1 4H4       0.059700
     13 N5           5.3740     1.0200     0.0640 nd         1 4H4      -0.307300
     14 N3           6.6810    -0.9120    -0.4320 nd         1 4H4      -0.436300
     15 N1           5.0430    -2.5100    -0.1940 nv         1 4H4      -1.035900
     16 N20         -5.0910    -2.3730    -0.2790 n8         1 4H4      -0.999100
     17 N9           2.6290     1.0590     0.7430 ns         1 4H4      -0.463900
     18 O8           2.5680    -1.2110     0.5820 o          1 4H4      -0.592100
     19 O21         -6.0800    -0.5780     1.0450 o          1 4H4      -0.544500
     20 O22         -6.0180    -0.4590    -1.5210 o          1 4H4      -0.544500
     21 O4           6.6720     0.5180    -0.2980 os         1 4H4       0.121600
     22 S19         -5.3960    -0.7660    -0.2330 sy         1 4H4       1.124600
     23 H1          -1.1800     0.8830    -2.2000 ha         1 4H4       0.118000
     24 H2          -1.4190     0.9740     2.1200 ha         1 4H4       0.118000
     25 H3          -3.4580    -0.0600    -2.3090 ha         1 4H4       0.137500
     26 H4          -3.6910     0.0360     2.0220 ha         1 4H4       0.137500
     27 H5           1.3300     3.4360     0.6400 hc         1 4H4       0.085200
     28 H6          -0.0440     2.9510     1.7430 hc         1 4H4       0.085200
     29 H7           0.6970     1.6720    -0.9970 hc         1 4H4       0.096700
     30 H8           0.9120     0.6170     1.9290 h1         1 4H4       0.099700
     31 H9           4.1260    -2.7250     0.1950 hn         1 4H4       0.497500
     32 H10          5.7550    -3.2330    -0.1460 hn         1 4H4       0.497500
     33 H11         -4.1530    -2.4260     0.1090 hn         1 4H4       0.472000
     34 H12         -5.6870    -2.7040     0.4760 hn         1 4H4       0.472000
     35 H13          3.2400     1.8660     0.6600 hn         1 4H4       0.343500
@<TRIPOS>BOND
     1     1     3 ar  
     2     1     5 ar  
     3     1    23 1   
     4     2     4 ar  
     5     2     5 ar  
     6     2    24 1   
     7     3     6 ar  
     8     3    25 1   
     9     4     6 ar  
    10     4    26 1   
    11     5    11 1   
    12     6    22 1   
    13     7     8 1   
    14     7     9 1   
    15     7    13 2   
    16     8    14 2   
    17     8    15 1   
    18     9    17 1   
    19     9    18 2   
    20    10    11 1   
    21    10    12 1   
    22    10    27 1   
    23    10    28 1   
    24    11    12 1   
    25    11    29 1   
    26    12    17 1   
    27    12    30 1   
    28    13    21 1   
    29    14    21 1   
    30    15    31 1   
    31    15    32 1   
    32    16    22 1   
    33    16    33 1   
    34    16    34 1   
    35    17    35 1   
    36    19    22 2   
    37    20    22 2   
@<TRIPOS>SUBSTRUCTURE
     1 4H4         1 TEMP              0 ****  ****    0 ROOT
