@<TRIPOS>MOLECULE
4H5
   29    31     1     0     0
SMALL
abcg2


@<TRIPOS>ATOM
      1 C4          -0.8570     1.2340     0.0960 cp         1 4H5      -0.133000
      2 C5           0.5280     1.5990     0.1480 cp         1 4H5      -0.029000
      3 C6           1.1980     2.7880     0.4090 ca         1 4H5      -0.114000
      4 N1           0.3860    -0.6110    -0.3560 na         1 4H5      -0.090600
      5 C7           2.5780     2.7540     0.3950 ca         1 4H5       0.321900
      6 C8           2.6530     0.5240    -0.0960 ca         1 4H5       0.437000
      7 N2           1.3240    -3.3250     1.4960 n1         1 4H5      -0.423000
      8 C9           1.2660     0.4300    -0.1240 ca         1 4H5      -0.047200
      9 C10          0.6930    -1.9820    -0.6550 c3         1 4H5       0.152700
     10 C11          1.0500    -2.7380     0.5480 c1         1 4H5       0.268900
     11 C12         -0.9030    -0.1380    -0.2010 ca         1 4H5       0.046800
     12 C13         -2.1000    -0.8270    -0.3060 ca         1 4H5      -0.192000
     13 CL           3.6630    -0.8640    -0.3690 cl         1 4H5      -0.171000
     14 C1          -3.2780    -0.1070    -0.1180 ca         1 4H5       0.184100
     15 O           -4.4120    -0.8140    -0.2350 os         1 4H5      -0.340100
     16 C           -5.6550    -0.1620    -0.0470 c3         1 4H5       0.149900
     17 C2          -3.2500     1.2690     0.1740 ca         1 4H5      -0.225000
     18 C3          -2.0440     1.9330     0.2810 ca         1 4H5      -0.003000
     19 N            3.2780     1.6440     0.1520 nb         1 4H5      -0.646000
     20 H1           0.6710     3.7070     0.6240 ha         1 4H5       0.131000
     21 H2           3.1550     3.6480     0.5950 h4         1 4H5       0.028100
     22 H3          -0.1730    -2.4550    -1.1160 h1         1 4H5       0.091200
     23 H4           1.4990    -2.0640    -1.3810 h1         1 4H5       0.091200
     24 H5          -2.1510    -1.8880    -0.5170 ha         1 4H5       0.135000
     25 H6          -5.8150     0.6300    -0.7820 h1         1 4H5       0.044367
     26 H7          -6.4210    -0.9210    -0.1800 h1         1 4H5       0.044367
     27 H8          -5.7470     0.2610     0.9560 h1         1 4H5       0.044367
     28 H9          -4.1660     1.8230     0.3230 ha         1 4H5       0.122000
     29 H10         -2.0330     2.9920     0.5080 ha         1 4H5       0.120000
@<TRIPOS>BOND
     1     1     2 1   
     2     1    11 ar  
     3     1    18 ar  
     4     2     3 ar  
     5     2     8 ar  
     6     3     5 ar  
     7     3    20 1   
     8     4     8 1   
     9     4     9 1   
    10     4    11 1   
    11     5    19 ar  
    12     5    21 1   
    13     6     8 ar  
    14     6    13 1   
    15     6    19 ar  
    16     7    10 3   
    17     9    10 1   
    18     9    22 1   
    19     9    23 1   
    20    11    12 ar  
    21    12    14 ar  
    22    12    24 1   
    23    14    15 1   
    24    14    17 ar  
    25    15    16 1   
    26    16    25 1   
    27    16    26 1   
    28    16    27 1   
    29    17    18 ar  
    30    17    28 1   
    31    18    29 1   
@<TRIPOS>SUBSTRUCTURE
     1 4H5         1 TEMP              0 ****  ****    0 ROOT
