@<TRIPOS>MOLECULE
4H5
   29    31     1     0     0
SMALL
No Charge or Current Charge


@<TRIPOS>ATOM
      1 C4          -0.8440     1.1960     0.0860 cp         1 4H5      -0.133000
      2 C5           0.5610     1.5800     0.1340 cp         1 4H5      -0.029000
      3 C6           1.1920     2.8220     0.3160 ca         1 4H5      -0.114000
      4 N1           0.4230    -0.6210    -0.1590 na         1 4H5      -0.090600
      5 C7           2.6040     2.8400     0.3510 ca         1 4H5       0.321900
      6 C8           2.7550     0.5250     0.0600 ca         1 4H5       0.437000
      7 N2           1.1850    -3.7710     1.1390 n1         1 4H5      -0.423000
      8 C9           1.3480     0.4400    -0.0050 ca         1 4H5      -0.047200
      9 C10          0.7690    -1.9470    -0.7150 c3         1 4H5       0.152700
     10 C11          1.0110    -2.9700     0.3100 c1         1 4H5       0.268900
     11 C12         -0.9120    -0.1830    -0.0820 ca         1 4H5       0.046800
     12 C13         -2.1250    -0.8770    -0.1460 ca         1 4H5      -0.192000
     13 Cl           3.8200    -0.8730    -0.0370 cl         1 4H5      -0.171000
     14 C1          -3.3160    -0.1310    -0.0380 ca         1 4H5       0.184100
     15 O           -4.5070    -0.8220    -0.1030 os         1 4H5      -0.340100
     16 C           -5.7830    -0.1640    -0.0040 c3         1 4H5       0.149900
     17 C2          -3.2620     1.2820     0.1310 ca         1 4H5      -0.225000
     18 C3          -2.0220     1.9550     0.1970 ca         1 4H5      -0.003000
     19 N            3.3750     1.7220     0.2330 nb         1 4H5      -0.646000
     20 H1           0.6210     3.7380     0.4310 ha         1 4H5       0.131000
     21 H2           3.1370     3.7790     0.4900 h4         1 4H5       0.028100
     22 H3          -0.0500    -2.2910    -1.3560 h1         1 4H5       0.091200
     23 H4           1.6530    -1.8610    -1.3550 h1         1 4H5       0.091200
     24 H5          -2.1590    -1.9560    -0.2700 ha         1 4H5       0.135000
     25 H6          -5.9090     0.5670    -0.8130 h1         1 4H5       0.044367
     26 H7          -6.5960    -0.8970    -0.0800 h1         1 4H5       0.044367
     27 H8          -5.8810     0.3540     0.9580 h1         1 4H5       0.044367
     28 H9          -4.1710     1.8710     0.2170 ha         1 4H5       0.122000
     29 H10         -1.9790     3.0340     0.3330 ha         1 4H5       0.120000
@<TRIPOS>BOND
     1     1     2 1   
     2     1    11 ar  
     3     1    18 ar  
     4     2     3 ar  
     5     2     8 ar  
     6     3     5 ar  
     7     3    20 1   
     8     4     8 1   
     9     4     9 1   
    10     4    11 1   
    11     5    19 ar  
    12     5    21 1   
    13     6     8 ar  
    14     6    13 1   
    15     6    19 ar  
    16     7    10 3   
    17     9    10 1   
    18     9    22 1   
    19     9    23 1   
    20    11    12 ar  
    21    12    14 ar  
    22    12    24 1   
    23    14    15 1   
    24    14    17 ar  
    25    15    16 1   
    26    16    25 1   
    27    16    26 1   
    28    16    27 1   
    29    17    18 ar  
    30    17    28 1   
    31    18    29 1   
@<TRIPOS>SUBSTRUCTURE
     1 4H5         1 TEMP              0 ****  ****    0 ROOT
