@<TRIPOS>MOLECULE
4H6
   43    45     1     0     0
SMALL
No Charge or Current Charge


@<TRIPOS>ATOM
      1 C12          2.8640     2.3060     1.8410 ca         1 4H6      -0.112000
      2 C13          3.4250     1.0540     2.1280 ca         1 4H6      -0.094000
      3 C5          -2.2730    -0.6150     0.5640 ca         1 4H6       0.017000
      4 C11          2.0870     2.4760     0.6840 ca         1 4H6      -0.097000
      5 C14          3.2110    -0.0240     1.2540 ca         1 4H6      -0.138000
      6 C6          -1.2920    -0.0200    -0.2370 ca         1 4H6      -0.243000
      7 C23         -3.0470     1.6180     1.0750 ca         1 4H6       0.420900
      8 C4          -3.1770     0.2270     1.2430 ca         1 4H6      -0.285600
      9 C10          1.8580     1.3970    -0.1970 ca         1 4H6      -0.103300
     10 C15          2.4330     0.1320     0.0890 ca         1 4H6       0.248000
     11 C7          -1.2520     1.3740    -0.3170 ca         1 4H6       0.657900
     12 C17          3.1070    -1.0880    -2.0000 c6         1 4H6       0.138300
     13 C21          1.8390    -2.3000    -0.2170 c6         1 4H6       0.138300
     14 C18          2.5020    -2.0800    -3.0390 c6         1 4H6       0.151600
     15 C20          1.2790    -3.2450    -1.3220 c6         1 4H6       0.151600
     16 C9           0.9910     1.6290    -1.4370 c3         1 4H6       0.294100
     17 N22         -2.0990     2.1880     0.3010 nb         1 4H6      -0.781000
     18 N16          2.2570    -0.9740    -0.7750 nh         1 4H6      -0.766400
     19 N1          -5.0930     0.4830     2.7460 nt         1 4H6      -0.607000
     20 N8          -0.3600     2.0750    -1.0640 nu         1 4H6      -0.922100
     21 O3          -4.3760    -1.5560     2.2680 o          1 4H6      -0.616100
     22 O19          2.2150    -3.3570    -2.4210 os         1 4H6      -0.448000
     23 H1           3.0310     3.1440     2.5140 ha         1 4H6       0.118000
     24 H2           4.0300     0.9190     3.0220 ha         1 4H6       0.117000
     25 H3          -2.3290    -1.7000     0.6520 ha         1 4H6       0.137000
     26 H4           1.6560     3.4520     0.4740 ha         1 4H6       0.116000
     27 H5           3.6630    -0.9860     1.4780 ha         1 4H6       0.118000
     28 H6          -0.5810    -0.6270    -0.7850 ha         1 4H6       0.126000
     29 H7          -3.7200     2.3160     1.5710 h4         1 4H6       0.008100
     30 H8           4.1140    -1.4350    -1.7230 h1         1 4H6       0.044950
     31 H9           3.2220    -0.1050    -2.4790 h1         1 4H6       0.044950
     32 H10          1.0650    -2.1600     0.5510 h1         1 4H6       0.044950
     33 H11          2.6960    -2.7930     0.2650 h1         1 4H6       0.044950
     34 H12          1.5730    -1.6630    -3.4540 h1         1 4H6       0.053450
     35 H13          3.2080    -2.2300    -3.8670 h1         1 4H6       0.053450
     36 H14          1.0950    -4.2430    -0.9010 h1         1 4H6       0.053450
     37 H15          0.3240    -2.8530    -1.7000 h1         1 4H6       0.053450
     38 H16          1.4740     2.3930    -2.0600 h1         1 4H6       0.056700
     39 H17          0.9200     0.7210    -2.0490 h1         1 4H6       0.056700
     40 H18         -5.0080     1.4810     2.6360 hn         1 4H6       0.310500
     41 H19         -5.8150     0.0940     3.3340 hn         1 4H6       0.310500
     42 H20         -0.4980     3.0710    -0.9350 hn         1 4H6       0.499000
     43 C2          -4.2460    -0.3550     2.1130 c          1 4H6       0.633700
@<TRIPOS>BOND
     1     1     2 ar  
     2     1     4 ar  
     3     1    23 1   
     4     2     5 ar  
     5     2    24 1   
     6     3     6 ar  
     7     3     8 ar  
     8     3    25 1   
     9     4     9 ar  
    10     4    26 1   
    11     5    10 ar  
    12     5    27 1   
    13     6    11 ar  
    14     6    28 1   
    15     7     8 ar  
    16     7    17 ar  
    17     7    29 1   
    18     8    43 1   
    19     9    10 ar  
    20     9    16 1   
    21    10    18 1   
    22    11    17 ar  
    23    11    20 1   
    24    12    14 1   
    25    12    18 1   
    26    12    30 1   
    27    12    31 1   
    28    13    15 1   
    29    13    18 1   
    30    13    32 1   
    31    13    33 1   
    32    14    22 1   
    33    14    34 1   
    34    14    35 1   
    35    15    22 1   
    36    15    36 1   
    37    15    37 1   
    38    16    20 1   
    39    16    38 1   
    40    16    39 1   
    41    19    40 1   
    42    19    41 1   
    43    19    43 1   
    44    20    42 1   
    45    21    43 2   
@<TRIPOS>SUBSTRUCTURE
     1 4H6         1 TEMP              0 ****  ****    0 ROOT
