@<TRIPOS>MOLECULE
4H6
   43    45     1     0     0
SMALL
abcg2


@<TRIPOS>ATOM
      1 C12          4.4740     2.8530     0.3300 ca         1 4H6      -0.112000
      2 C13          4.8860     1.5840     0.7080 ca         1 4H6      -0.094000
      3 C5          -2.5450    -0.4180    -1.1660 ca         1 4H6       0.017000
      4 C11          3.2060     3.0310    -0.2070 ca         1 4H6      -0.097000
      5 C14          4.0270     0.5050     0.5480 ca         1 4H6      -0.138000
      6 C6          -1.4570     0.4140    -1.2090 ca         1 4H6      -0.243000
      7 C23         -2.8750     0.2080     1.0930 ca         1 4H6       0.420900
      8 C4          -3.2870    -0.5630     0.0130 ca         1 4H6      -0.285600
      9 C10          2.3390     1.9560    -0.3720 ca         1 4H6      -0.103300
     10 C15          2.7520     0.6780     0.0160 ca         1 4H6       0.248000
     11 C7          -1.1110     1.1350    -0.0450 ca         1 4H6       0.657900
     12 C17          2.3510    -1.4340    -1.0670 c6         1 4H6       0.138300
     13 C21          1.4440    -1.0090     1.1160 c6         1 4H6       0.138300
     14 C18          1.2910    -2.5020    -1.2530 c6         1 4H6       0.151600
     15 C20          0.4300    -2.1110     0.8690 c6         1 4H6       0.151600
     16 C9           0.9690     2.1720    -0.9600 c3         1 4H6       0.294100
     17 N22         -1.8370     1.0260     1.0760 nb         1 4H6      -0.781000
     18 N16          1.8590    -0.4180    -0.1490 nh         1 4H6      -0.766400
     19 N1          -4.9590    -1.7990     1.2330 nt         1 4H6      -0.607000
     20 N8          -0.0700     1.9850     0.0230 nu         1 4H6      -0.922100
     21 O3          -4.9580    -1.8760    -1.0170 o          1 4H6      -0.616100
     22 O19          0.9270    -3.0860    -0.0220 os         1 4H6      -0.448000
     23 H1           5.1340     3.7020     0.4530 ha         1 4H6       0.118000
     24 H2           5.8720     1.4310     1.1270 ha         1 4H6       0.117000
     25 H3          -2.8240    -0.9740    -2.0510 ha         1 4H6       0.137000
     26 H4           2.8820     4.0220    -0.5030 ha         1 4H6       0.116000
     27 H5           4.3560    -0.4850     0.8420 ha         1 4H6       0.118000
     28 H6          -0.8880     0.5060    -2.1220 ha         1 4H6       0.126000
     29 H7          -3.4190     0.1890     2.0320 h4         1 4H6       0.008100
     30 H8           3.2830    -1.9050    -0.7140 h1         1 4H6       0.044950
     31 H9           2.5670    -0.9740    -2.0340 h1         1 4H6       0.044950
     32 H10          0.9830    -0.2400     1.7410 h1         1 4H6       0.044950
     33 H11          2.2970    -1.4190     1.6800 h1         1 4H6       0.044950
     34 H12          0.4120    -2.0630    -1.7460 h1         1 4H6       0.053450
     35 H13          1.6740    -3.2990    -1.8920 h1         1 4H6       0.053450
     36 H14          0.2000    -2.6150     1.8100 h1         1 4H6       0.053450
     37 H15         -0.5010    -1.6790     0.4810 h1         1 4H6       0.053450
     38 H16          0.9120     3.1810    -1.3790 h1         1 4H6       0.056700
     39 H17          0.8130     1.4810    -1.7830 h1         1 4H6       0.056700
     40 H18         -4.4780    -1.6060     2.0930 hn         1 4H6       0.310500
     41 H19         -5.7470    -2.4230     1.2860 hn         1 4H6       0.310500
     42 H20          0.0510     2.4450     0.9120 hn         1 4H6       0.499000
     43 C2          -4.4630    -1.4650     0.0280 c          1 4H6       0.633700
@<TRIPOS>BOND
     1     1     2 ar  
     2     1     4 ar  
     3     1    23 1   
     4     2     5 ar  
     5     2    24 1   
     6     3     6 ar  
     7     3     8 ar  
     8     3    25 1   
     9     4     9 ar  
    10     4    26 1   
    11     5    10 ar  
    12     5    27 1   
    13     6    11 ar  
    14     6    28 1   
    15     7     8 ar  
    16     7    17 ar  
    17     7    29 1   
    18     8    43 1   
    19     9    10 ar  
    20     9    16 1   
    21    10    18 1   
    22    11    17 ar  
    23    11    20 1   
    24    12    14 1   
    25    12    18 1   
    26    12    30 1   
    27    12    31 1   
    28    13    15 1   
    29    13    18 1   
    30    13    32 1   
    31    13    33 1   
    32    14    22 1   
    33    14    34 1   
    34    14    35 1   
    35    15    22 1   
    36    15    36 1   
    37    15    37 1   
    38    16    20 1   
    39    16    38 1   
    40    16    39 1   
    41    19    40 1   
    42    19    41 1   
    43    19    43 1   
    44    20    42 1   
    45    21    43 2   
@<TRIPOS>SUBSTRUCTURE
     1 4H6         1 TEMP              0 ****  ****    0 ROOT
