@<TRIPOS>MOLECULE
4H7
   47    49     1     0     0
SMALL
No Charge or Current Charge


@<TRIPOS>ATOM
      1 C8           2.6240     3.0770     1.4770 ca         1 4H7      -0.114000
      2 C7           3.2670     1.9640     2.0340 ca         1 4H7      -0.094000
      3 C14         -2.2580    -0.5450     0.8440 ca         1 4H7       0.015000
      4 C9           1.8470     2.9300     0.3170 ca         1 4H7      -0.098000
      5 C6           3.1340     0.7050     1.4270 ca         1 4H7      -0.138000
      6 C13         -1.3270    -0.0310    -0.0670 ca         1 4H7      -0.242000
      7 C16         -3.2000     1.6790     0.9590 ca         1 4H7       0.421900
      8 C15         -3.2220     0.3340     1.3740 ca         1 4H7      -0.289600
      9 C10          1.7000     1.6670    -0.2970 ca         1 4H7      -0.104300
     10 C5           2.3560     0.5410     0.2620 ca         1 4H7       0.252000
     11 C12         -1.3940     1.3240    -0.3940 ca         1 4H7       0.659900
     12 C2           3.1450    -1.0740    -1.4880 c6         1 4H7       0.178800
     13 C3           1.9570    -1.9350     0.5160 c6         1 4H7       0.178800
     14 C1           2.6160    -2.2980    -2.3050 c6         1 4H7       0.160800
     15 C4           1.4460    -3.1480    -0.3290 c6         1 4H7       0.160800
     16 C11          0.8300     1.5560    -1.5510 c3         1 4H7       0.294100
     17 N3          -2.2990     2.1710     0.0810 nb         1 4H7      -0.780000
     18 N1           2.2620    -0.7390    -0.3300 nh         1 4H7      -0.775400
     19 N            2.3700    -3.5010    -1.4500 n3         1 4H7      -0.716600
     20 N4          -5.1490     0.7120     2.8370 nt         1 4H7      -0.607000
     21 N2          -0.5590     1.9450    -1.2680 nu         1 4H7      -0.920100
     22 O           -4.2800    -1.3210     2.7200 o          1 4H7      -0.616100
     23 H13          2.7270     4.0550     1.9430 ha         1 4H7       0.117000
     24 H12          3.8720     2.0750     2.9310 ha         1 4H7       0.116000
     25 H19         -2.2300    -1.5980     1.1240 ha         1 4H7       0.135000
     26 H14          1.3510     3.8020    -0.1050 ha         1 4H7       0.115000
     27 H11          3.6500    -0.1480     1.8590 ha         1 4H7       0.119000
     28 H18         -0.5730    -0.6710    -0.5090 ha         1 4H7       0.126000
     29 H20         -3.9240     2.4010     1.3320 h4         1 4H7       0.009100
     30 H6           4.1580    -1.3020    -1.1260 h1         1 4H7       0.041450
     31 H5           3.2290    -0.2120    -2.1660 h1         1 4H7       0.041450
     32 H8           1.1910    -1.6820     1.2640 h1         1 4H7       0.041450
     33 H7           2.8590    -2.2460     1.0620 h1         1 4H7       0.041450
     34 H4           1.6850    -2.0010    -2.8100 h1         1 4H7       0.039700
     35 H3           3.3450    -2.5340    -3.0930 h1         1 4H7       0.039700
     36 H10          1.3140    -4.0090     0.3410 h1         1 4H7       0.039700
     37 H9           0.4510    -2.8990    -0.7280 h1         1 4H7       0.039700
     38 H1           2.6310    -4.9280    -3.0100 h1         1 4H7       0.032033
     39 H            1.7820    -5.5440    -1.5760 h1         1 4H7       0.032033
     40 H2           0.9400    -4.4600    -2.7100 h1         1 4H7       0.032033
     41 H15          1.2480     2.2170    -2.3230 h1         1 4H7       0.055700
     42 H16          0.8500     0.5390    -1.9640 h1         1 4H7       0.055700
     43 H21         -5.1410     1.6780     2.5490 hn         1 4H7       0.310000
     44 H22         -5.8380     0.3810     3.4960 hn         1 4H7       0.310000
     45 H17         -0.7780     2.9340    -1.3170 hn         1 4H7       0.499000
     46 C17         -4.2420    -0.1600     2.3510 c          1 4H7       0.632700
     47 C            1.9050    -4.6680    -2.2280 c3         1 4H7       0.151100
@<TRIPOS>BOND
     1     1     2 ar  
     2     1     4 ar  
     3     1    23 1   
     4     2     5 ar  
     5     2    24 1   
     6     3     6 ar  
     7     3     8 ar  
     8     3    25 1   
     9     4     9 ar  
    10     4    26 1   
    11     5    10 ar  
    12     5    27 1   
    13     6    11 ar  
    14     6    28 1   
    15     7     8 ar  
    16     7    17 ar  
    17     7    29 1   
    18     8    46 1   
    19     9    10 ar  
    20     9    16 1   
    21    10    18 1   
    22    11    17 ar  
    23    11    21 1   
    24    12    14 1   
    25    12    18 1   
    26    12    30 1   
    27    12    31 1   
    28    13    15 1   
    29    13    18 1   
    30    13    32 1   
    31    13    33 1   
    32    14    19 1   
    33    14    34 1   
    34    14    35 1   
    35    15    19 1   
    36    15    36 1   
    37    15    37 1   
    38    16    21 1   
    39    16    41 1   
    40    16    42 1   
    41    19    47 1   
    42    20    43 1   
    43    20    44 1   
    44    20    46 1   
    45    21    45 1   
    46    22    46 2   
    47    38    47 1   
    48    39    47 1   
    49    40    47 1   
@<TRIPOS>SUBSTRUCTURE
     1 4H7         1 TEMP              0 ****  ****    0 ROOT
