@<TRIPOS>MOLECULE
4H7
   47    49     1     0     0
SMALL
abcg2


@<TRIPOS>ATOM
      1 C8           4.2280     3.4460     0.2570 ca         1 4H7      -0.114000
      2 C7           4.7860     2.2450     0.6700 ca         1 4H7      -0.094000
      3 C14         -2.3970    -0.6230    -1.1770 ca         1 4H7       0.015000
      4 C9           2.9450     3.4590    -0.2730 ca         1 4H7      -0.098000
      5 C6           4.0560     1.0700     0.5540 ca         1 4H7      -0.138000
      6 C13         -1.4140     0.3300    -1.2290 ca         1 4H7      -0.242000
      7 C16         -2.7900    -0.0240     1.0790 ca         1 4H7       0.421900
      8 C15         -3.1090    -0.8480     0.0070 ca         1 4H7      -0.289600
      9 C10          2.2060     2.2870    -0.3960 ca         1 4H7      -0.104300
     10 C5           2.7660     1.0780     0.0290 ca         1 4H7       0.252000
     11 C12         -1.1420     1.0850    -0.0680 ca         1 4H7       0.659900
     12 C2           2.5890    -1.0970    -0.9930 c6         1 4H7       0.178800
     13 C3           1.6510    -0.7110     1.1850 c6         1 4H7       0.178800
     14 C1           1.6260    -2.2530    -1.1860 c6         1 4H7       0.160800
     15 C4           0.7190    -1.8910     0.9840 c6         1 4H7       0.160800
     16 C11          0.8200     2.3270    -0.9860 c3         1 4H7       0.294100
     17 N3          -1.8530     0.9080     1.0540 nb         1 4H7      -0.780000
     18 N1           2.0020    -0.1160    -0.0950 nh         1 4H7      -0.775400
     19 N            1.3050    -2.8670     0.0860 n3         1 4H7      -0.716600
     20 N4          -4.5800    -2.2910     1.2550 nt         1 4H7      -0.607000
     21 N2          -0.1930     2.0360    -0.0030 nu         1 4H7      -0.920100
     22 O           -4.6360    -2.3460    -0.9950 o          1 4H7      -0.616100
     23 H13          4.7870     4.3680     0.3470 ha         1 4H7       0.117000
     24 H12          5.7860     2.2210     1.0830 ha         1 4H7       0.116000
     25 H19         -2.6140    -1.2130    -2.0580 ha         1 4H7       0.135000
     26 H14          2.5100     4.3970    -0.5980 ha         1 4H7       0.115000
     27 H11          4.4980     0.1340     0.8740 ha         1 4H7       0.119000
     28 H18         -0.8650     0.4840    -2.1460 ha         1 4H7       0.126000
     29 H20         -3.3310    -0.0970     2.0180 h4         1 4H7       0.009100
     30 H6           3.5490    -1.4900    -0.6200 h1         1 4H7       0.041450
     31 H5           2.7850    -0.6260    -1.9580 h1         1 4H7       0.041450
     32 H8           1.1480     0.0390     1.7990 h1         1 4H7       0.041450
     33 H7           2.5400    -1.0470     1.7420 h1         1 4H7       0.041450
     34 H4           0.7240    -1.8870    -1.7060 h1         1 4H7       0.039700
     35 H3           2.0950    -2.9990    -1.8330 h1         1 4H7       0.039700
     36 H10          0.5370    -2.3630     1.9530 h1         1 4H7       0.039700
     37 H9          -0.2540    -1.5330     0.6120 h1         1 4H7       0.039700
     38 H1           0.9260    -4.7560    -0.7210 h1         1 4H7       0.032033
     39 H            0.2580    -4.4850     0.8890 h1         1 4H7       0.032033
     40 H2          -0.5310    -3.7690    -0.5230 h1         1 4H7       0.032033
     41 H15          0.6450     3.3130    -1.4270 h1         1 4H7       0.055700
     42 H16          0.7530     1.6060    -1.7970 h1         1 4H7       0.055700
     43 H21         -4.0880    -2.0600     2.1000 hn         1 4H7       0.310000
     44 H22         -5.2770    -3.0140     1.3210 hn         1 4H7       0.310000
     45 H17         -0.1210     2.5090     0.8850 hn         1 4H7       0.499000
     46 C17         -4.1650    -1.8870     0.0400 c          1 4H7       0.632700
     47 C            0.4460    -4.0160    -0.0780 c3         1 4H7       0.151100
@<TRIPOS>BOND
     1     1     2 ar  
     2     1     4 ar  
     3     1    23 1   
     4     2     5 ar  
     5     2    24 1   
     6     3     6 ar  
     7     3     8 ar  
     8     3    25 1   
     9     4     9 ar  
    10     4    26 1   
    11     5    10 ar  
    12     5    27 1   
    13     6    11 ar  
    14     6    28 1   
    15     7     8 ar  
    16     7    17 ar  
    17     7    29 1   
    18     8    46 1   
    19     9    10 ar  
    20     9    16 1   
    21    10    18 1   
    22    11    17 ar  
    23    11    21 1   
    24    12    14 1   
    25    12    18 1   
    26    12    30 1   
    27    12    31 1   
    28    13    15 1   
    29    13    18 1   
    30    13    32 1   
    31    13    33 1   
    32    14    19 1   
    33    14    34 1   
    34    14    35 1   
    35    15    19 1   
    36    15    36 1   
    37    15    37 1   
    38    16    21 1   
    39    16    41 1   
    40    16    42 1   
    41    19    47 1   
    42    20    43 1   
    43    20    44 1   
    44    20    46 1   
    45    21    45 1   
    46    22    46 2   
    47    38    47 1   
    48    39    47 1   
    49    40    47 1   
@<TRIPOS>SUBSTRUCTURE
     1 4H7         1 TEMP              0 ****  ****    0 ROOT
