@<TRIPOS>MOLECULE
4H8
   33    33     1     0     0
SMALL
No Charge or Current Charge


@<TRIPOS>ATOM
      1 C4           4.2570     0.7560     1.3030 c3         1 4H8      -0.085767
      2 C5           2.6050    -0.7180     0.0040 c3         1 4H8       0.247800
      3 C7           0.1750     0.0880     0.0010 ca         1 4H8       0.440900
      4 C10         -2.4870    -0.2460    -0.0230 ca         1 4H8      -0.412600
      5 N12         -4.4310    -1.7060     0.0250 nt         1 4H8      -0.598000
      6 C9          -1.6030    -1.3430    -0.0280 ca         1 4H8       0.204900
      7 C14         -1.8860     1.0180     0.0040 ca         1 4H8       0.471900
      8 C11         -3.9700    -0.4450    -0.0600 c          1 4H8       0.652700
      9 C1           4.2700     0.7880    -1.2400 c3         1 4H8      -0.085767
     10 C3           5.0720    -1.2500     0.0100 c3         1 4H8      -0.085767
     11 C2           4.0370    -0.0930     0.0190 c3         1 4H8      -0.067000
     12 N8          -0.2680    -1.1790    -0.0160 nb         1 4H8      -0.289000
     13 N16         -0.5660     1.1990     0.0110 nb         1 4H8      -0.365000
     14 N15         -2.5940     2.1610     0.0330 nv         1 4H8      -1.063900
     15 N6           1.5380     0.2990     0.0100 nu         1 4H8      -0.916100
     16 O13         -4.7690     0.4670    -0.1840 o          1 4H8      -0.654100
     17 H1           3.5840     1.6210     1.3330 hc         1 4H8       0.036922
     18 H2           4.0780     0.1560     2.2040 hc         1 4H8       0.036922
     19 H3           5.2860     1.1340     1.3490 hc         1 4H8       0.036922
     20 H4           2.5020    -1.3510    -0.8880 h1         1 4H8       0.053700
     21 H5           2.4920    -1.3720     0.8810 h1         1 4H8       0.053700
     22 H6          -3.7890    -2.4750     0.1270 hn         1 4H8       0.310000
     23 H7          -5.4260    -1.8650    -0.0050 hn         1 4H8       0.310000
     24 H8          -1.9510    -2.3730    -0.0520 h4         1 4H8       0.009100
     25 H9           5.2990     1.1670    -1.2660 hc         1 4H8       0.036922
     26 H10          4.1000     0.2120    -2.1570 hc         1 4H8       0.036922
     27 H11          3.5980     1.6550    -1.2540 hc         1 4H8       0.036922
     28 H12          4.9470    -1.8950     0.8880 hc         1 4H8       0.036922
     29 H13          4.9560    -1.8730    -0.8860 hc         1 4H8       0.036922
     30 H14          6.0980    -0.8610     0.0200 hc         1 4H8       0.036922
     31 H15         -3.5930     2.0560    -0.1540 hn         1 4H8       0.515500
     32 H16         -2.1490     3.0100    -0.3010 hn         1 4H8       0.515500
     33 H17          1.8200     1.2770     0.0260 hn         1 4H8       0.506000
@<TRIPOS>BOND
     1     1    11 1   
     2     1    17 1   
     3     1    18 1   
     4     1    19 1   
     5     2    11 1   
     6     2    15 1   
     7     2    20 1   
     8     2    21 1   
     9     3    12 ar  
    10     3    13 ar  
    11     3    15 1   
    12     4     6 ar  
    13     4     7 ar  
    14     4     8 1   
    15     5     8 1   
    16     5    22 1   
    17     5    23 1   
    18     6    12 ar  
    19     6    24 1   
    20     7    13 ar  
    21     7    14 1   
    22     8    16 2   
    23     9    11 1   
    24     9    25 1   
    25     9    26 1   
    26     9    27 1   
    27    10    11 1   
    28    10    28 1   
    29    10    29 1   
    30    10    30 1   
    31    14    31 1   
    32    14    32 1   
    33    15    33 1   
@<TRIPOS>SUBSTRUCTURE
     1 4H8         1 TEMP              0 ****  ****    0 ROOT
