@<TRIPOS>MOLECULE
4H8
   33    33     1     0     0
SMALL
bcc


@<TRIPOS>ATOM
      1 C4           4.2470     0.7580     1.2680 c3         1 4H8      -0.085767
      2 C5           2.5600    -0.6770     0.0620 c3         1 4H8       0.247800
      3 C7           0.2360     0.1470    -0.0220 ca         1 4H8       0.966900
      4 C10         -2.4220    -0.2590    -0.1220 ca         1 4H8      -0.543200
      5 N12         -4.2980    -1.7540     0.0640 nt         1 4H8      -0.665000
      6 C9          -1.4890    -1.2820    -0.1960 ca         1 4H8       0.533200
      7 C14         -1.8620     1.0530    -0.0390 ca         1 4H8       0.800200
      8 C11         -3.8760    -0.4970    -0.1670 c          1 4H8       0.719700
      9 C1           4.1930     0.7320    -1.2410 c3         1 4H8      -0.085767
     10 C3           4.9520    -1.2780     0.0210 c3         1 4H8      -0.085767
     11 C2           3.9800    -0.0980     0.0270 c3         1 4H8      -0.067000
     12 N8          -0.1790    -1.1230    -0.1530 nb         1 4H8      -0.815000
     13 N16         -0.5450     1.2260     0.0230 nb         1 4H8      -0.891000
     14 N15         -2.6160     2.1520     0.0050 nv         1 4H8      -0.953500
     15 N6           1.5550     0.3610     0.0590 nu         1 4H8      -0.860900
     16 O13         -4.6780     0.4040    -0.4180 o          1 4H8      -0.654100
     17 H1           3.5910     1.6290     1.3300 hc         1 4H8       0.036922
     18 H2           4.1150     0.1780     2.1840 hc         1 4H8       0.036922
     19 H3           5.2720     1.1330     1.2590 hc         1 4H8       0.036922
     20 H4           2.4160    -1.3290    -0.8030 h1         1 4H8       0.053700
     21 H5           2.4530    -1.3100     0.9510 h1         1 4H8       0.053700
     22 H6          -3.7100    -2.4570     0.4770 hn         1 4H8       0.310000
     23 H7          -5.2880    -1.9350     0.0790 hn         1 4H8       0.310000
     24 H8          -1.8190    -2.3090    -0.3190 h4         1 4H8       0.009100
     25 H9           5.2140     1.1160    -1.2790 hc         1 4H8       0.036922
     26 H10          4.0320     0.1300    -2.1380 hc         1 4H8       0.036922
     27 H11          3.5220     1.5920    -1.2940 hc         1 4H8       0.036922
     28 H12          4.8280    -1.9010     0.9090 hc         1 4H8       0.036922
     29 H13          4.8030    -1.9120    -0.8550 hc         1 4H8       0.036922
     30 H14          5.9840    -0.9240     0.0040 hc         1 4H8       0.036922
     31 H15         -3.6080     2.0820    -0.1520 hn         1 4H8       0.460300
     32 H16         -2.1700     3.0530     0.0080 hn         1 4H8       0.460300
     33 H17          1.8380     1.3160     0.2040 hn         1 4H8       0.450800
@<TRIPOS>BOND
     1     1    11 1   
     2     1    17 1   
     3     1    18 1   
     4     1    19 1   
     5     2    11 1   
     6     2    15 1   
     7     2    20 1   
     8     2    21 1   
     9     3    12 ar  
    10     3    13 ar  
    11     3    15 1   
    12     4     6 ar  
    13     4     7 ar  
    14     4     8 1   
    15     5     8 1   
    16     5    22 1   
    17     5    23 1   
    18     6    12 ar  
    19     6    24 1   
    20     7    13 ar  
    21     7    14 1   
    22     8    16 2   
    23     9    11 1   
    24     9    25 1   
    25     9    26 1   
    26     9    27 1   
    27    10    11 1   
    28    10    28 1   
    29    10    29 1   
    30    10    30 1   
    31    14    31 1   
    32    14    32 1   
    33    15    33 1   
@<TRIPOS>SUBSTRUCTURE
     1 4H8         1 TEMP              0 ****  ****    0 ROOT
