@<TRIPOS>MOLECULE
4H9
   26    27     1     0     0
SMALL
abcg2


@<TRIPOS>ATOM
      1 C4           2.5930     1.3170    -0.5250 ca         1 4H9      -0.195000
      2 C5           1.2360     1.5440    -0.4790 ca         1 4H9      -0.006000
      3 C6           0.3520     0.5450    -0.0550 ca         1 4H9      -0.193600
      4 C7           0.8780    -0.6780     0.3550 ca         1 4H9      -0.006000
      5 C8           2.2440    -0.9070     0.3410 ca         1 4H9      -0.195000
      6 N12         -1.7460    -1.3110    -0.7150 nc         1 4H9      -0.541800
      7 C13         -2.9100    -1.8780    -0.7570 cd         1 4H9       0.576900
      8 C15         -3.3820    -0.0200     0.0840 cc         1 4H9       0.728400
      9 C3           3.1130     0.0860    -0.1110 ca         1 4H9       0.179100
     10 C9          -1.0740     0.9030     0.0360 c          1 4H9       0.630500
     11 C1           5.0300    -1.2690     0.2360 c3         1 4H9       0.146900
     12 N14         -3.9470    -1.1470    -0.2840 nd         1 4H9      -0.785000
     13 N11         -2.0280    -0.0950    -0.1550 n          1 4H9      -0.110500
     14 O10         -1.4450     2.0340     0.2710 o          1 4H9      -0.571100
     15 O2           4.4410    -0.0480    -0.1760 os         1 4H9      -0.336100
     16 H3           3.2640     2.0910    -0.8750 ha         1 4H9       0.128000
     17 H1           0.8560     2.5070    -0.7940 ha         1 4H9       0.131000
     18 H2           0.2320    -1.4650     0.7130 ha         1 4H9       0.131000
     19 H4           2.6090    -1.8640     0.6880 ha         1 4H9       0.128000
     20 H5          -3.0360    -2.8730    -1.1600 h5         1 4H9       0.061100
     21 H6           4.8280    -1.4810     1.2890 h1         1 4H9       0.045367
     22 H7           4.6860    -2.1110    -0.3690 h1         1 4H9       0.045367
     23 H8           6.1020    -1.1540     0.1000 h1         1 4H9       0.045367
     24 H10         -5.0110     0.9870     0.6630 hn         1 4H9       0.510500
     25 H9          -3.5670     1.9170     0.6740 hn         1 4H9       0.510500
     26 N16         -4.0050     1.0130     0.6570 nv         1 4H9      -1.058900
@<TRIPOS>BOND
     1     1     2 ar  
     2     1     9 ar  
     3     1    16 1   
     4     2     3 ar  
     5     2    17 1   
     6     3     4 ar  
     7     3    10 1   
     8     4     5 ar  
     9     4    18 1   
    10     5     9 ar  
    11     5    19 1   
    12     6     7 2   
    13     6    13 1   
    14     7    12 1   
    15     7    20 1   
    16     8    12 2   
    17     8    13 1   
    18     8    26 1   
    19     9    15 1   
    20    10    13 1   
    21    10    14 2   
    22    11    15 1   
    23    11    21 1   
    24    11    22 1   
    25    11    23 1   
    26    24    26 1   
    27    25    26 1   
@<TRIPOS>SUBSTRUCTURE
     1 4H9         1 TEMP              0 ****  ****    0 ROOT
