@<TRIPOS>MOLECULE
4H9
   26    27     1     0     0
SMALL
No Charge or Current Charge


@<TRIPOS>ATOM
      1 C4           2.6520     1.3910    -0.4200 ca         1 4H9      -0.195000
      2 C5           1.2690     1.6310    -0.3740 ca         1 4H9      -0.006000
      3 C6           0.3700     0.6050    -0.0080 ca         1 4H9      -0.193600
      4 C7           0.8990    -0.6590     0.3470 ca         1 4H9      -0.006000
      5 C8           2.2840    -0.8950     0.3020 ca         1 4H9      -0.195000
      6 N12         -1.9070    -1.4170    -0.5990 nc         1 4H9      -0.541800
      7 C13         -3.1050    -1.9900    -0.6320 cd         1 4H9       0.576900
      8 C15         -3.4090    -0.0480     0.0690 cc         1 4H9       0.728400
      9 C3           3.1670     0.1310    -0.0880 ca         1 4H9       0.179100
     10 C9          -1.1160     0.9180     0.0380 c          1 4H9       0.630500
     11 C1           5.1630    -1.2980     0.1710 c3         1 4H9       0.146900
     12 N14         -4.1000    -1.1130    -0.2040 nd         1 4H9      -0.785000
     13 N11         -2.0570    -0.1320    -0.1400 n          1 4H9      -0.110500
     14 O10         -1.4810     2.0720     0.2510 o          1 4H9      -0.571100
     15 O2           4.5350    -0.0440    -0.1500 os         1 4H9      -0.336100
     16 H3           3.3290     2.1880    -0.7130 ha         1 4H9       0.128000
     17 H1           0.8960     2.6200    -0.6380 ha         1 4H9       0.131000
     18 H2           0.2530    -1.4630     0.6890 ha         1 4H9       0.131000
     19 H4           2.6510    -1.8780     0.5830 ha         1 4H9       0.128000
     20 H5          -3.3030    -3.0080    -0.9520 h5         1 4H9       0.061100
     21 H6           4.9540    -1.5840     1.2100 h1         1 4H9       0.045367
     22 H7           4.8060    -2.0940    -0.4930 h1         1 4H9       0.045367
     23 H8           6.2510    -1.2190     0.0540 h1         1 4H9       0.045367
     24 H10         -5.0530     1.0270     0.3190 hn         1 4H9       0.510500
     25 H9          -3.5680     1.8930     0.4870 hn         1 4H9       0.510500
     26 N16         -4.0660     1.0090     0.5450 nv         1 4H9      -1.058900
@<TRIPOS>BOND
     1     1     2 ar  
     2     1     9 ar  
     3     1    16 1   
     4     2     3 ar  
     5     2    17 1   
     6     3     4 ar  
     7     3    10 1   
     8     4     5 ar  
     9     4    18 1   
    10     5     9 ar  
    11     5    19 1   
    12     6     7 2   
    13     6    13 1   
    14     7    12 1   
    15     7    20 1   
    16     8    12 2   
    17     8    13 1   
    18     8    26 1   
    19     9    15 1   
    20    10    13 1   
    21    10    14 2   
    22    11    15 1   
    23    11    21 1   
    24    11    22 1   
    25    11    23 1   
    26    24    26 1   
    27    25    26 1   
@<TRIPOS>SUBSTRUCTURE
     1 4H9         1 TEMP              0 ****  ****    0 ROOT
