@<TRIPOS>MOLECULE
4HA
   18    17     1     0     0
SMALL
No Charge or Current Charge


@<TRIPOS>ATOM
      1 OA          -3.1130     0.2480     0.0160 oh         1 4HA      -0.651000
      2 CB          -1.9200    -0.5420     0.0060 c3         1 4HA       0.173600
      3 CG          -0.6870     0.3840    -0.0060 c3         1 4HA      -0.080400
      4 CD           0.6500    -0.3890    -0.0180 c3         1 4HA      -0.107400
      5 CE           1.8720     0.5450    -0.0300 c3         1 4HA       0.099600
      6 NZ           3.1510    -0.2510    -0.0410 nz         1 4HA      -0.975000
      7 HA          -3.8710    -0.3800     0.0240 ho         1 4HA       0.466000
      8 HB2         -1.8970    -1.1870    -0.8830 h1         1 4HA       0.022700
      9 HB3         -1.8810    -1.1860     0.8940 h1         1 4HA       0.022700
     10 HG2         -0.7220     1.0360     0.8760 hc         1 4HA       0.070700
     11 HG3         -0.7380     1.0350    -0.8880 hc         1 4HA       0.070700
     12 HD2          0.6840    -1.0390    -0.9010 hc         1 4HA       0.064700
     13 HD3          0.7010    -1.0380     0.8650 hc         1 4HA       0.064700
     14 HE2          1.8500     1.1870     0.8580 hx         1 4HA       0.108700
     15 HE3          1.8340     1.1860    -0.9180 hx         1 4HA       0.108700
     16 HZ1          3.2570    -0.8660     0.7800 hn         1 4HA       0.513000
     17 HZ2          3.9960     0.3430    -0.0500 hn         1 4HA       0.513000
     18 HZ3          3.2420    -0.8670    -0.8650 hn         1 4HA       0.513000
@<TRIPOS>BOND
     1     1     2 1   
     2     1     7 1   
     3     2     3 1   
     4     2     8 1   
     5     2     9 1   
     6     3     4 1   
     7     3    10 1   
     8     3    11 1   
     9     4     5 1   
    10     4    12 1   
    11     4    13 1   
    12     5     6 1   
    13     5    14 1   
    14     5    15 1   
    15     6    16 1   
    16     6    17 1   
    17     6    18 1   
@<TRIPOS>SUBSTRUCTURE
     1 4HA         1 TEMP              0 ****  ****    0 ROOT
