@<TRIPOS>MOLECULE
4HA
   18    17     1     0     0
SMALL
bcc


@<TRIPOS>ATOM
      1 OA          -3.0470     0.2490     0.0110 oh         1 4HA      -0.588800
      2 CB          -1.8750    -0.5350     0.0070 c3         1 4HA       0.150400
      3 CG          -0.6700     0.3850    -0.0110 c3         1 4HA      -0.080400
      4 CD           0.6320    -0.4060    -0.0180 c3         1 4HA      -0.107400
      5 CE           1.8270     0.5240    -0.0260 c3         1 4HA       0.127800
      6 NZ           3.1020    -0.2430    -0.0430 nz         1 4HA      -0.837600
      7 HA          -3.8050    -0.3430     0.0260 ho         1 4HA       0.427000
      8 HB2         -1.8370    -1.1960    -0.8690 h1         1 4HA       0.022700
      9 HB3         -1.8210    -1.1820     0.8930 h1         1 4HA       0.022700
     10 HG2         -0.6990     1.0400     0.8660 hc         1 4HA       0.070700
     11 HG3         -0.7150     1.0280    -0.8940 hc         1 4HA       0.070700
     12 HD2          0.6670    -1.0570    -0.8970 hc         1 4HA       0.064700
     13 HD3          0.6790    -1.0540     0.8620 hc         1 4HA       0.064700
     14 HE2          1.8520     1.1540     0.8610 hx         1 4HA       0.108700
     15 HE3          1.8350     1.1630    -0.9060 hx         1 4HA       0.108700
     16 HZ1          3.1900    -0.8510     0.7710 hn         1 4HA       0.457800
     17 HZ2          3.9120     0.3760    -0.0410 hn         1 4HA       0.457800
     18 HZ3          3.1790    -0.8320    -0.8710 hn         1 4HA       0.457800
@<TRIPOS>BOND
     1     1     2 1   
     2     1     7 1   
     3     2     3 1   
     4     2     8 1   
     5     2     9 1   
     6     3     4 1   
     7     3    10 1   
     8     3    11 1   
     9     4     5 1   
    10     4    12 1   
    11     4    13 1   
    12     5     6 1   
    13     5    14 1   
    14     5    15 1   
    15     6    16 1   
    16     6    17 1   
    17     6    18 1   
@<TRIPOS>SUBSTRUCTURE
     1 4HA         1 TEMP              0 ****  ****    0 ROOT
