@<TRIPOS>MOLECULE
4HB
   24    25     1     0     0
SMALL
No Charge or Current Charge


@<TRIPOS>ATOM
      1 CA1          0.7460    -0.0680    -0.0700 cp         1 4HB      -0.064000
      2 CA2          1.4760    -1.2100     0.3490 ca         1 4HB      -0.063500
      3 CA3          2.8810    -1.2060     0.3650 ca         1 4HB      -0.175500
      4 CA4          3.5860    -0.0640    -0.0390 ca         1 4HB       0.140100
      5 OA4          4.9480    -0.0700    -0.0210 oh         1 4HB      -0.533100
      6 CA5          2.8880     1.0780    -0.4590 ca         1 4HB      -0.175500
      7 CA6          1.4810     1.0760    -0.4740 ca         1 4HB      -0.063500
      8 CB1         -0.7520    -0.0700    -0.0870 cp         1 4HB      -0.064000
      9 CB2         -1.4910     1.1010     0.2240 ca         1 4HB      -0.063500
     10 CB3         -2.8970     1.0980     0.2090 ca         1 4HB      -0.175500
     11 CB4         -3.5930    -0.0750    -0.1180 ca         1 4HB       0.140100
     12 CB5         -2.8860    -1.2430    -0.4290 ca         1 4HB      -0.175500
     13 CB6         -1.4800    -1.2430    -0.4140 ca         1 4HB      -0.063500
     14 OAM         -4.9550    -0.0850    -0.1350 oh         1 4HB      -0.533100
     15 HA2          0.9490    -2.1020     0.6800 ha         1 4HB       0.114500
     16 HA6          0.9590     1.9660    -0.8160 ha         1 4HB       0.114500
     17 HA3          3.4230    -2.0890     0.6930 ha         1 4HB       0.121000
     18 HA4          5.2670     0.8040    -0.3330 ho         1 4HB       0.464000
     19 HA5          3.4250     1.9680    -0.7780 ha         1 4HB       0.121000
     20 HB2         -0.9700     2.0160     0.4940 ha         1 4HB       0.114500
     21 HB6         -0.9510    -2.1580    -0.6720 ha         1 4HB       0.114500
     22 HB3         -3.4360     2.0100     0.4560 ha         1 4HB       0.121000
     23 HB5         -3.4250    -2.1520    -0.6860 ha         1 4HB       0.121000
     24 HAM         -5.2760     0.8100     0.1060 ho         1 4HB       0.464000
@<TRIPOS>BOND
     1     1     2 ar  
     2     1     7 ar  
     3     1     8 1   
     4     2     3 ar  
     5     2    15 1   
     6     3     4 ar  
     7     3    17 1   
     8     4     5 1   
     9     4     6 ar  
    10     5    18 1   
    11     6     7 ar  
    12     6    19 1   
    13     7    16 1   
    14     8     9 ar  
    15     8    13 ar  
    16     9    10 ar  
    17     9    20 1   
    18    10    11 ar  
    19    10    22 1   
    20    11    12 ar  
    21    11    14 1   
    22    12    13 ar  
    23    12    23 1   
    24    13    21 1   
    25    14    24 1   
@<TRIPOS>SUBSTRUCTURE
     1 4HB         1 TEMP              0 ****  ****    0 ROOT
