@<TRIPOS>MOLECULE
4HB
   24    25     1     0     0
SMALL
bcc


@<TRIPOS>ATOM
      1 CA1          0.7340    -0.0520    -0.0720 cp         1 4HB      -0.064000
      2 CA2          1.4550    -1.1660     0.3640 ca         1 4HB      -0.081500
      3 CA3          2.8390    -1.1750     0.3810 ca         1 4HB      -0.193500
      4 CA4          3.5490    -0.0540    -0.0430 ca         1 4HB       0.140100
      5 OA4          4.8960    -0.1080    -0.0110 oh         1 4HB      -0.494100
      6 CA5          2.8490     1.0670    -0.4790 ca         1 4HB      -0.193500
      7 CA6          1.4630     1.0600    -0.4910 ca         1 4HB      -0.081500
      8 CB1         -0.7410    -0.0540    -0.0880 cp         1 4HB      -0.064000
      9 CB2         -1.4720     1.0870     0.2410 ca         1 4HB      -0.081500
     10 CB3         -2.8580     1.0900     0.2290 ca         1 4HB      -0.193500
     11 CB4         -3.5560    -0.0640    -0.1160 ca         1 4HB       0.140100
     12 CB5         -2.8440    -1.2150    -0.4480 ca         1 4HB      -0.193500
     13 CB6         -1.4600    -1.2010    -0.4320 ca         1 4HB      -0.081500
     14 OAM         -4.9020    -0.1230    -0.1440 oh         1 4HB      -0.494100
     15 HA2          0.9280    -2.0430     0.7180 ha         1 4HB       0.132500
     16 HA6          0.9450     1.9380    -0.8570 ha         1 4HB       0.132500
     17 HA3          3.3730    -2.0500     0.7320 ha         1 4HB       0.139000
     18 HA4          5.2740     0.7170    -0.3320 ho         1 4HB       0.425000
     19 HA5          3.3830     1.9470    -0.8220 ha         1 4HB       0.139000
     20 HB2         -0.9560     1.9920     0.5350 ha         1 4HB       0.132500
     21 HB6         -0.9310    -2.1030    -0.7140 ha         1 4HB       0.132500
     22 HB3         -3.3940     1.9930     0.5000 ha         1 4HB       0.139000
     23 HB5         -3.3760    -2.1150    -0.7280 ha         1 4HB       0.139000
     24 HAM         -5.2810     0.7220     0.1210 ho         1 4HB       0.425000
@<TRIPOS>BOND
     1     1     2 ar  
     2     1     7 ar  
     3     1     8 1   
     4     2     3 ar  
     5     2    15 1   
     6     3     4 ar  
     7     3    17 1   
     8     4     5 1   
     9     4     6 ar  
    10     5    18 1   
    11     6     7 ar  
    12     6    19 1   
    13     7    16 1   
    14     8     9 ar  
    15     8    13 ar  
    16     9    10 ar  
    17     9    20 1   
    18    10    11 ar  
    19    10    22 1   
    20    11    12 ar  
    21    11    14 1   
    22    12    13 ar  
    23    12    23 1   
    24    13    21 1   
    25    14    24 1   
@<TRIPOS>SUBSTRUCTURE
     1 4HB         1 TEMP              0 ****  ****    0 ROOT
