@<TRIPOS>MOLECULE
4HC
   18    19     1     0     0
SMALL
No Charge or Current Charge


@<TRIPOS>ATOM
      1 CA           0.7240    -0.0140     1.9250 cc         1 4HC      -0.471200
      2 CA2         -0.7370    -0.0460     2.0220 c          1 4HC       0.695300
      3 CA4         -0.8300    -0.0340    -0.4000 ca         1 4HC       0.189100
      4 CA5          0.5700    -0.0030    -0.5140 ca         1 4HC      -0.168800
      5 CA6          1.3550     0.0070     0.7180 cd         1 4HC       0.257900
      6 CD1         -1.6390    -0.0450    -1.5460 ca         1 4HC      -0.139000
      7 CD2         -1.0510    -0.0250    -2.8230 ca         1 4HC      -0.053000
      8 CD3          0.3490     0.0060    -2.9450 ca         1 4HC      -0.149000
      9 CD4          1.1610     0.0170    -1.7970 ca         1 4HC      -0.030000
     10 OA2         -1.3130    -0.0640     3.0990 o          1 4HC      -0.491000
     11 OA3         -1.4250    -0.0540     0.8380 os         1 4HC      -0.340200
     12 OA6          2.6950     0.0360     0.6350 oh         1 4HC      -0.514100
     13 HA           1.2510    -0.0080     2.8710 ha         1 4HC       0.213000
     14 HD1         -2.7210    -0.0690    -1.4440 ha         1 4HC       0.141000
     15 HD2         -1.6780    -0.0330    -3.7130 ha         1 4HC       0.122000
     16 HD3          0.8060     0.0220    -3.9320 ha         1 4HC       0.123000
     17 HD4          2.2430     0.0410    -1.9110 ha         1 4HC       0.132000
     18 HA6          3.0300     0.0380     1.5550 ho         1 4HC       0.484000
@<TRIPOS>BOND
     1     1     2 1   
     2     1     5 2   
     3     1    13 1   
     4     2    10 2   
     5     2    11 1   
     6     3     4 ar  
     7     3     6 ar  
     8     3    11 1   
     9     4     5 1   
    10     4     9 ar  
    11     5    12 1   
    12     6     7 ar  
    13     6    14 1   
    14     7     8 ar  
    15     7    15 1   
    16     8     9 ar  
    17     8    16 1   
    18     9    17 1   
    19    12    18 1   
@<TRIPOS>SUBSTRUCTURE
     1 4HC         1 TEMP              0 ****  ****    0 ROOT
