@<TRIPOS>MOLECULE
4HC
   18    19     1     0     0
SMALL
bcc


@<TRIPOS>ATOM
      1 CA           0.6950    -0.0120     1.9180 cc         1 4HC      -0.421200
      2 CA2         -0.7360    -0.0440     1.9940 c          1 4HC       0.770800
      3 CA4         -0.8080    -0.0340    -0.3920 ca         1 4HC       0.189100
      4 CA5          0.5810    -0.0030    -0.5050 ca         1 4HC      -0.168800
      5 CA6          1.3390     0.0060     0.7240 cd         1 4HC       0.257900
      6 CD1         -1.6200    -0.0460    -1.5190 ca         1 4HC      -0.157000
      7 CD2         -1.0310    -0.0250    -2.7690 ca         1 4HC      -0.071000
      8 CD3          0.3570     0.0080    -2.9030 ca         1 4HC      -0.167000
      9 CD4          1.1580     0.0180    -1.7800 ca         1 4HC      -0.048000
     10 OA2         -1.3980    -0.0640     3.0040 o          1 4HC      -0.566500
     11 OA3         -1.4190    -0.0550     0.8130 os         1 4HC      -0.340200
     12 OA6          2.6530     0.0330     0.5850 oh         1 4HC      -0.475100
     13 HA           1.2390    -0.0050     2.8540 ha         1 4HC       0.163000
     14 HD1         -2.6960    -0.0710    -1.4100 ha         1 4HC       0.159000
     15 HD2         -1.6600    -0.0340    -3.6490 ha         1 4HC       0.140000
     16 HD3          0.8060     0.0240    -3.8870 ha         1 4HC       0.141000
     17 HD4          2.2330     0.0420    -1.8850 ha         1 4HC       0.150000
     18 HA6          3.0980     0.0350     1.4430 ho         1 4HC       0.445000
@<TRIPOS>BOND
     1     1     2 1   
     2     1     5 2   
     3     1    13 1   
     4     2    10 2   
     5     2    11 1   
     6     3     4 ar  
     7     3     6 ar  
     8     3    11 1   
     9     4     5 1   
    10     4     9 ar  
    11     5    12 1   
    12     6     7 ar  
    13     6    14 1   
    14     7     8 ar  
    15     7    15 1   
    16     8     9 ar  
    17     8    16 1   
    18     9    17 1   
    19    12    18 1   
@<TRIPOS>SUBSTRUCTURE
     1 4HC         1 TEMP              0 ****  ****    0 ROOT
