@<TRIPOS>MOLECULE
4HD
   56    55     1     0     0
SMALL
bcc


@<TRIPOS>ATOM
      1 O1          11.0580     0.1770    -1.9470 o          1 4HD      -0.846300
      2 O2          10.2990     0.7790     0.0570 o          1 4HD      -0.846300
      3 C1          10.2010     0.1920    -1.0380 c          1 4HD       0.926600
      4 C2           8.9160    -0.6100    -1.3160 c3         1 4HD      -0.206400
      5 C3           7.8320    -0.4870    -0.2580 c3         1 4HD      -0.079400
      6 C4           6.6070    -1.3650    -0.5300 c3         1 4HD       0.157300
      7 C5           5.6430    -1.2720     0.6160 c2         1 4HD      -0.149200
      8 C6           4.3590    -0.9100     0.5330 ce         1 4HD      -0.177000
      9 C7           3.4930    -0.8010     1.6960 ce         1 4HD      -0.102000
     10 C8           2.2100    -0.4220     1.7010 c2         1 4HD      -0.188200
     11 C9           1.3680    -0.0550     0.5150 c3         1 4HD      -0.009000
     12 C10          0.3400    -1.1210     0.2610 c2         1 4HD      -0.144200
     13 C11         -0.9800    -1.0260     0.4070 c2         1 4HD      -0.185200
     14 C12         -1.7710     0.1830     0.8180 c3         1 4HD      -0.010000
     15 C13         -2.5680     0.6990    -0.3460 c2         1 4HD      -0.151200
     16 C14         -3.8860     0.6250    -0.5250 c2         1 4HD      -0.176200
     17 C15         -4.9070     0.0410     0.4080 c3         1 4HD      -0.011000
     18 C16         -5.8500     1.1040     0.8950 c2         1 4HD      -0.156200
     19 C17         -7.1330     1.2530     0.5740 c2         1 4HD      -0.171200
     20 C18         -7.9540     0.3730    -0.3260 c3         1 4HD      -0.011000
     21 C19         -8.9630    -0.4000     0.4740 c2         1 4HD      -0.159200
     22 C20        -10.2900    -0.2770     0.4420 c2         1 4HD      -0.173200
     23 C21        -11.1080     0.6300    -0.4230 c3         1 4HD      -0.043200
     24 C22        -12.0540    -0.1550    -1.3300 c3         1 4HD      -0.086100
     25 O3           6.0090    -1.0840    -1.7750 oh         1 4HD      -0.599800
     26 H2C1         8.5300    -0.3090    -2.2940 hc         1 4HD       0.023700
     27 H2C2         9.1970    -1.6640    -1.4320 hc         1 4HD       0.023700
     28 H3C1         8.2370    -0.7600     0.7200 hc         1 4HD       0.045700
     29 H3C2         7.5030     0.5540    -0.1650 hc         1 4HD       0.045700
     30 H4           6.9490    -2.4060    -0.5980 h1         1 4HD       0.072700
     31 H5           6.0620    -1.5130     1.5910 ha         1 4HD       0.119000
     32 H3           5.8210    -0.1400    -1.8120 ho         1 4HD       0.398000
     33 H6           3.9350    -0.6820    -0.4390 ha         1 4HD       0.125000
     34 H7           3.9480    -1.0510     2.6500 ha         1 4HD       0.114000
     35 H8           1.6940    -0.3950     2.6560 ha         1 4HD       0.109000
     36 H9C1         0.8900     0.9110     0.6960 hc         1 4HD       0.050700
     37 H9C2         1.9840     0.0670    -0.3790 hc         1 4HD       0.050700
     38 H10          0.7460    -2.0770    -0.0550 ha         1 4HD       0.122000
     39 H11         -1.5770    -1.9040     0.1790 ha         1 4HD       0.113000
     40 H121        -2.4220    -0.0820     1.6530 hc         1 4HD       0.048700
     41 H122        -1.1120     0.9740     1.1810 hc         1 4HD       0.048700
     42 H13         -1.9770     1.1530    -1.1360 ha         1 4HD       0.121000
     43 H14         -4.2940     1.0400    -1.4420 ha         1 4HD       0.115000
     44 H151        -5.4530    -0.7520    -0.1100 hc         1 4HD       0.049700
     45 H152        -4.4250    -0.4300     1.2670 hc         1 4HD       0.049700
     46 H16         -5.4060     1.8350     1.5650 ha         1 4HD       0.119000
     47 H17         -7.6750     2.0830     1.0180 ha         1 4HD       0.116000
     48 H181        -8.4450     0.9930    -1.0790 hc         1 4HD       0.050700
     49 H182        -7.3130    -0.3240    -0.8710 hc         1 4HD       0.050700
     50 H19         -8.5360    -1.1200     1.1670 ha         1 4HD       0.118000
     51 H20        -10.8660    -0.9180     1.1060 ha         1 4HD       0.113000
     52 H211       -11.7000     1.2910     0.2180 hc         1 4HD       0.043200
     53 H212       -10.4720     1.2790    -1.0260 hc         1 4HD       0.043200
     54 H221       -12.6740     0.5150    -1.9260 hc         1 4HD       0.031367
     55 H222       -11.4980    -0.7950    -2.0160 hc         1 4HD       0.031367
     56 H223       -12.7210    -0.7930    -0.7480 hc         1 4HD       0.031367
@<TRIPOS>BOND
     1     1     3 1   
     2     2     3 1   
     3     3     4 1   
     4     4     5 1   
     5     4    26 1   
     6     4    27 1   
     7     5     6 1   
     8     5    28 1   
     9     5    29 1   
    10     6     7 1   
    11     6    25 1   
    12     6    30 1   
    13     7     8 2   
    14     7    31 1   
    15     8     9 1   
    16     8    33 1   
    17     9    10 2   
    18     9    34 1   
    19    10    11 1   
    20    10    35 1   
    21    11    12 1   
    22    11    36 1   
    23    11    37 1   
    24    12    13 2   
    25    12    38 1   
    26    13    14 1   
    27    13    39 1   
    28    14    15 1   
    29    14    40 1   
    30    14    41 1   
    31    15    16 2   
    32    15    42 1   
    33    16    17 1   
    34    16    43 1   
    35    17    18 1   
    36    17    44 1   
    37    17    45 1   
    38    18    19 2   
    39    18    46 1   
    40    19    20 1   
    41    19    47 1   
    42    20    21 1   
    43    20    48 1   
    44    20    49 1   
    45    21    22 2   
    46    21    50 1   
    47    22    23 1   
    48    22    51 1   
    49    23    24 1   
    50    23    52 1   
    51    23    53 1   
    52    24    54 1   
    53    24    55 1   
    54    24    56 1   
    55    25    32 1   
@<TRIPOS>SUBSTRUCTURE
     1 4HD         1 TEMP              0 ****  ****    0 ROOT
