@<TRIPOS>MOLECULE
4HD
   56    55     1     0     0
SMALL
No Charge or Current Charge


@<TRIPOS>ATOM
      1 O1           5.9080     3.0420    -2.0380 o          1 4HD      -0.741000
      2 O2           7.6050     3.0450    -0.7130 o          1 4HD      -0.741000
      3 C1           6.8220     2.4750    -1.4580 c          1 4HD       0.716000
      4 C2           6.9580     0.9520    -1.6270 c3         1 4HD      -0.206400
      5 C3           6.1220     0.2140    -0.5460 c3         1 4HD      -0.079400
      6 C4           6.2550    -1.3300    -0.5790 c3         1 4HD       0.180500
      7 C5           5.5810    -1.9960     0.6020 c2         1 4HD      -0.199200
      8 C6           4.2890    -1.8560     0.9790 ce         1 4HD      -0.227000
      9 C7           3.7150    -2.5440     2.1420 ce         1 4HD      -0.152000
     10 C8           2.4330    -2.4210     2.5560 c2         1 4HD      -0.238200
     11 C9           1.3430    -1.5680     1.9340 c3         1 4HD      -0.009000
     12 C10          0.8090    -2.1880     0.6570 c2         1 4HD      -0.194200
     13 C11         -0.3390    -1.8710     0.0330 c2         1 4HD      -0.235200
     14 C12         -1.3460    -0.8160     0.4550 c3         1 4HD      -0.010000
     15 C13         -1.7840     0.0210    -0.7320 c2         1 4HD      -0.201200
     16 C14         -3.0000     0.5560    -0.9430 c2         1 4HD      -0.226200
     17 C15         -4.2110     0.4660    -0.0320 c3         1 4HD      -0.011000
     18 C16         -4.9860     1.7710    -0.0290 c2         1 4HD      -0.206200
     19 C17         -6.3230     1.9210     0.0120 c2         1 4HD      -0.221200
     20 C18         -7.3640     0.8200     0.0860 c3         1 4HD      -0.011000
     21 C19         -8.5680     1.2720     0.8920 c2         1 4HD      -0.209200
     22 C20         -9.8500     1.3330     0.4870 c2         1 4HD      -0.223200
     23 C21        -10.3970     0.9980    -0.8880 c3         1 4HD      -0.043200
     24 C22        -10.7910    -0.4850    -1.0110 c3         1 4HD      -0.086100
     25 O3           5.6720    -1.8500    -1.7730 oh         1 4HD      -0.662000
     26 H2C1         6.5500     0.6400    -2.5960 hc         1 4HD       0.023700
     27 H2C2         7.9980     0.6430    -1.4650 hc         1 4HD       0.023700
     28 H3C1         6.4430     0.5660     0.4430 hc         1 4HD       0.045700
     29 H3C2         5.0670     0.4980    -0.6480 hc         1 4HD       0.045700
     30 H4           7.3270    -1.5760    -0.5490 h1         1 4HD       0.072700
     31 H5           6.2500    -2.6440     1.1690 ha         1 4HD       0.169000
     32 H3           4.7120    -1.9310    -1.5900 ho         1 4HD       0.437000
     33 H6           3.6230    -1.2040     0.4110 ha         1 4HD       0.175000
     34 H7           4.3890    -3.2010     2.6980 ha         1 4HD       0.164000
     35 H8           2.1000    -2.9780     3.4340 ha         1 4HD       0.159000
     36 H9C1         0.5280    -1.4340     2.6570 hc         1 4HD       0.050700
     37 H9C2         1.7280    -0.5610     1.7270 hc         1 4HD       0.050700
     38 H10          1.4460    -2.9720     0.2420 ha         1 4HD       0.172000
     39 H11         -0.6180    -2.4040    -0.8790 ha         1 4HD       0.163000
     40 H121        -2.2070    -1.3120     0.9170 hc         1 4HD       0.048700
     41 H122        -0.9220    -0.1570     1.2220 hc         1 4HD       0.048700
     42 H13         -0.9960     0.1760    -1.4730 ha         1 4HD       0.171000
     43 H14         -3.1780     1.1310    -1.8550 ha         1 4HD       0.165000
     44 H151        -4.8470    -0.3620    -0.3660 hc         1 4HD       0.049700
     45 H152        -3.9090     0.2300     0.9950 hc         1 4HD       0.049700
     46 H16         -4.3510     2.6590    -0.0690 ha         1 4HD       0.169000
     47 H17         -6.7480     2.9270    -0.0010 ha         1 4HD       0.166000
     48 H181        -7.6520     0.5240    -0.9280 hc         1 4HD       0.050700
     49 H182        -6.9440    -0.0790     0.5520 hc         1 4HD       0.050700
     50 H19         -8.3190     1.5510     1.9180 ha         1 4HD       0.168000
     51 H20        -10.6160     1.6700     1.1900 ha         1 4HD       0.163000
     52 H211       -11.2750     1.6200    -1.0990 hc         1 4HD       0.043200
     53 H212        -9.6660     1.2380    -1.6690 hc         1 4HD       0.043200
     54 H221       -11.1890    -0.6930    -2.0110 hc         1 4HD       0.031367
     55 H222        -9.9200    -1.1310    -0.8460 hc         1 4HD       0.031367
     56 H223       -11.5590    -0.7430    -0.2730 hc         1 4HD       0.031367
@<TRIPOS>BOND
     1     1     3 1   
     2     2     3 1   
     3     3     4 1   
     4     4     5 1   
     5     4    26 1   
     6     4    27 1   
     7     5     6 1   
     8     5    28 1   
     9     5    29 1   
    10     6     7 1   
    11     6    25 1   
    12     6    30 1   
    13     7     8 2   
    14     7    31 1   
    15     8     9 1   
    16     8    33 1   
    17     9    10 2   
    18     9    34 1   
    19    10    11 1   
    20    10    35 1   
    21    11    12 1   
    22    11    36 1   
    23    11    37 1   
    24    12    13 2   
    25    12    38 1   
    26    13    14 1   
    27    13    39 1   
    28    14    15 1   
    29    14    40 1   
    30    14    41 1   
    31    15    16 2   
    32    15    42 1   
    33    16    17 1   
    34    16    43 1   
    35    17    18 1   
    36    17    44 1   
    37    17    45 1   
    38    18    19 2   
    39    18    46 1   
    40    19    20 1   
    41    19    47 1   
    42    20    21 1   
    43    20    48 1   
    44    20    49 1   
    45    21    22 2   
    46    21    50 1   
    47    22    23 1   
    48    22    51 1   
    49    23    24 1   
    50    23    52 1   
    51    23    53 1   
    52    24    54 1   
    53    24    55 1   
    54    24    56 1   
    55    25    32 1   
@<TRIPOS>SUBSTRUCTURE
     1 4HD         1 TEMP              0 ****  ****    0 ROOT
