@<TRIPOS>MOLECULE
4HF
   52    54     1     0     0
SMALL
abcg2


@<TRIPOS>ATOM
      1 C5           4.0420    -0.1170    -0.7520 c6         1 4HF       0.013800
      2 C4A          5.4870     0.2800    -0.8000 cc         1 4HF      -0.399400
      3 C4           6.0910     0.6520    -2.0210 c          1 4HF       0.594200
      4 O4           5.5610     0.6770    -3.1330 o          1 4HF      -0.570000
      5 N3           7.4360     1.0240    -1.9110 ns         1 4HF      -0.446400
      6 C2           8.1120     1.0350    -0.7410 cc         1 4HF       0.739800
      7 N2           9.3860     1.4600    -0.7590 nv         1 4HF      -1.055200
      8 N1           7.5630     0.6820     0.3900 nd         1 4HF      -0.776300
      9 C8A          6.2610     0.3060     0.3530 cd         1 4HF       0.466600
     10 N8           5.7340    -0.0430     1.5390 nu         1 4HF      -0.815200
     11 C7           4.4060    -0.5900     1.6710 c6         1 4HF       0.232800
     12 C6           3.4600     0.0400     0.6530 c6         1 4HF      -0.078700
     13 C9           2.0650    -0.5720     0.7230 c3         1 4HF      -0.077400
     14 C10          1.3410    -0.3170     2.0480 c3         1 4HF       0.007900
     15 C3          -0.0420    -0.8770     2.0660 cc         1 4HF      -0.255300
     16 S2          -1.3020    -0.1670     1.1330 ss         1 4HF       0.231000
     17 C13         -0.5020    -1.9720     2.7390 cd         1 4HF      -0.144000
     18 C12         -1.8720    -2.2410     2.5020 cd         1 4HF      -0.121000
     19 C1          -2.4500    -1.3530     1.6420 cc         1 4HF      -0.208600
     20 C11         -3.8660    -1.3890     1.2120 c          1 4HF       0.622700
     21 O11         -4.6580    -2.1300     1.7820 o          1 4HF      -0.626100
     22 N           -4.2150    -0.5580     0.2180 ns         1 4HF      -0.419900
     23 CA          -5.5210    -0.6080    -0.4010 c3         1 4HF      -0.051300
     24 C           -5.7050    -1.8630    -1.2940 c          1 4HF       0.717000
     25 OX1         -6.8720    -2.0590    -1.6900 o          1 4HF      -0.741000
     26 OX2         -4.6980    -2.5440    -1.5500 o          1 4HF      -0.741000
     27 CB          -5.7520     0.6730    -1.2020 c3         1 4HF      -0.055400
     28 CG          -5.7670     1.9270    -0.3420 c3         1 4HF      -0.202400
     29 CD          -6.0240     3.2460    -1.0910 c          1 4HF       0.713000
     30 OE1         -6.0320     3.2180    -2.3370 o          1 4HF      -0.761000
     31 OE2         -6.1950     4.2560    -0.3750 o          1 4HF      -0.761000
     32 H51          3.4630     0.4930    -1.4510 hc         1 4HF       0.056700
     33 H52          3.9040    -1.1560    -1.0800 hc         1 4HF       0.056700
     34 HN3          7.9050     1.2920    -2.7660 hn         1 4HF       0.316500
     35 HN21         9.9400     1.3030     0.0650 hn         1 4HF       0.491500
     36 HN22         9.8880     1.5460    -1.6270 hn         1 4HF       0.491500
     37 HN8          6.3530    -0.0600     2.3320 hn         1 4HF       0.494000
     38 H71          4.0720    -0.3950     2.6910 h1         1 4HF       0.042700
     39 H72          4.4090    -1.6800     1.5370 h1         1 4HF       0.042700
     40 H6           3.3840     1.1100     0.8810 hc         1 4HF       0.059700
     41 H91          1.4670    -0.1600    -0.0960 hc         1 4HF       0.057200
     42 H92          2.1270    -1.6500     0.5440 hc         1 4HF       0.057200
     43 H101         1.8880    -0.7750     2.8740 hc         1 4HF       0.035700
     44 H102         1.3190     0.7580     2.2480 hc         1 4HF       0.035700
     45 H4           0.1280    -2.5640     3.3880 ha         1 4HF       0.107000
     46 H5          -2.4120    -3.0650     2.9460 ha         1 4HF       0.145000
     47 HN          -3.4830    -0.1380    -0.3340 hn         1 4HF       0.295500
     48 HA          -6.2690    -0.6510     0.3970 h1         1 4HF       0.057700
     49 HB1         -4.9880     0.7580    -1.9820 hc         1 4HF       0.051200
     50 HB2         -6.7050     0.5730    -1.7220 hc         1 4HF       0.051200
     51 HG1         -6.5240     1.8210     0.4430 hc         1 4HF       0.010700
     52 HG2         -4.8170     2.0280     0.1970 hc         1 4HF       0.010700
@<TRIPOS>BOND
     1     1     2 1   
     2     1    12 1   
     3     1    32 1   
     4     1    33 1   
     5     2     3 1   
     6     2     9 2   
     7     3     4 2   
     8     3     5 1   
     9     5     6 1   
    10     5    34 1   
    11     6     7 1   
    12     6     8 2   
    13     7    35 1   
    14     7    36 1   
    15     8     9 1   
    16     9    10 1   
    17    10    11 1   
    18    10    37 1   
    19    11    12 1   
    20    11    38 1   
    21    11    39 1   
    22    12    13 1   
    23    12    40 1   
    24    13    14 1   
    25    13    41 1   
    26    13    42 1   
    27    14    15 1   
    28    14    43 1   
    29    14    44 1   
    30    15    16 1   
    31    15    17 2   
    32    16    19 1   
    33    17    18 1   
    34    17    45 1   
    35    18    19 2   
    36    18    46 1   
    37    19    20 1   
    38    20    21 2   
    39    20    22 1   
    40    22    23 1   
    41    22    47 1   
    42    23    24 1   
    43    23    27 1   
    44    23    48 1   
    45    24    25 1   
    46    24    26 1   
    47    27    28 1   
    48    27    49 1   
    49    27    50 1   
    50    28    29 1   
    51    28    51 1   
    52    28    52 1   
    53    29    30 1   
    54    29    31 1   
@<TRIPOS>SUBSTRUCTURE
     1 4HF         1 TEMP              0 ****  ****    0 ROOT
