@<TRIPOS>MOLECULE
4HF
   52    54     1     0     0
SMALL
No Charge or Current Charge


@<TRIPOS>ATOM
      1 C5           4.4750    -0.7300    -0.6360 c6         1 4HF       0.013800
      2 C4A          5.9220    -0.2740    -0.7070 cc         1 4HF      -0.399400
      3 C4           6.6910    -0.6060    -1.9010 c          1 4HF       0.594200
      4 O4           6.2700    -1.2150    -2.8710 o          1 4HF      -0.570000
      5 N3           7.9560    -0.1620    -1.8300 ns         1 4HF      -0.446400
      6 C2           8.4370     0.5020    -0.7740 cc         1 4HF       0.739800
      7 N2           9.7020     0.8670    -0.8390 nv         1 4HF      -1.055200
      8 N1           7.8090     0.8230     0.3210 nd         1 4HF      -0.776300
      9 C8A          6.5020     0.4120     0.3300 cd         1 4HF       0.466600
     10 N8           5.8510     0.7370     1.4550 nu         1 4HF      -0.815200
     11 C7           4.5090     0.2090     1.7440 c6         1 4HF       0.232800
     12 C6           3.6900     0.0970     0.4240 c6         1 4HF      -0.078700
     13 C9           2.2610    -0.4880     0.6450 c3         1 4HF      -0.077400
     14 C10          1.3350     0.3470     1.5580 c3         1 4HF       0.007900
     15 C3          -0.0540    -0.2260     1.6470 cc         1 4HF      -0.255300
     16 S2          -1.2620     0.0940     0.4000 ss         1 4HF       0.231000
     17 C13         -0.5720    -1.0220     2.6390 cd         1 4HF      -0.144000
     18 C12         -1.9260    -1.3930     2.4240 cd         1 4HF      -0.121000
     19 C1          -2.4510    -0.8780     1.2610 cc         1 4HF      -0.208600
     20 C11         -3.8370    -1.1070     0.7970 c          1 4HF       0.622700
     21 O11         -4.6510    -1.7860     1.4100 o          1 4HF      -0.626100
     22 N           -4.1320    -0.4920    -0.4020 ns         1 4HF      -0.419900
     23 CA          -5.4470    -0.5160    -1.0870 c3         1 4HF      -0.051300
     24 C           -5.2460    -0.7170    -2.6200 c          1 4HF       0.717000
     25 OX1         -5.8400    -1.6360    -3.1650 o          1 4HF      -0.741000
     26 OX2         -4.4320    -0.0090    -3.2000 o          1 4HF      -0.741000
     27 CB          -6.2860     0.7570    -0.7930 c3         1 4HF      -0.055400
     28 CG          -6.6580     0.9590     0.7000 c3         1 4HF      -0.202400
     29 CD          -7.5820     2.1810     0.8550 c          1 4HF       0.713000
     30 OE1         -7.0690     3.2780     1.0180 o          1 4HF      -0.761000
     31 OE2         -8.7880     2.0100     0.7570 o          1 4HF      -0.761000
     32 H51          3.9760    -0.6330    -1.6110 hc         1 4HF       0.056700
     33 H52          4.4350    -1.7970    -0.3750 hc         1 4HF       0.056700
     34 HN3          8.5470    -0.3300    -2.6260 hn         1 4HF       0.316500
     35 HN21        10.0580     1.1900     0.0520 hn         1 4HF       0.491500
     36 HN22        10.3260     0.2600    -1.3550 hn         1 4HF       0.491500
     37 HN8          6.4490     1.0850     2.2010 hn         1 4HF       0.494000
     38 H71          3.9920     0.8730     2.4520 h1         1 4HF       0.042700
     39 H72          4.5860    -0.7830     2.2140 h1         1 4HF       0.042700
     40 H6           3.5520     1.1120     0.0250 hc         1 4HF       0.059700
     41 H91          1.7650    -0.5970    -0.3280 hc         1 4HF       0.057200
     42 H92          2.3340    -1.5010     1.0610 hc         1 4HF       0.057200
     43 H101         1.7650     0.4080     2.5640 hc         1 4HF       0.035700
     44 H102         1.2840     1.3750     1.1770 hc         1 4HF       0.035700
     45 H4          -0.0010    -1.3390     3.5060 ha         1 4HF       0.107000
     46 H5          -2.4890    -2.0200     3.1100 ha         1 4HF       0.145000
     47 HN          -3.3820     0.0220    -0.8470 hn         1 4HF       0.295500
     48 HA          -6.0090    -1.3870    -0.7270 h1         1 4HF       0.057700
     49 HB1         -5.7420     1.6400    -1.1520 hc         1 4HF       0.051200
     50 HB2         -7.2110     0.7020    -1.3800 hc         1 4HF       0.051200
     51 HG1         -7.1790     0.0430     1.0050 hc         1 4HF       0.010700
     52 HG2         -5.7130     1.1270     1.2310 hc         1 4HF       0.010700
@<TRIPOS>BOND
     1     1     2 1   
     2     1    12 1   
     3     1    32 1   
     4     1    33 1   
     5     2     3 1   
     6     2     9 2   
     7     3     4 2   
     8     3     5 1   
     9     5     6 1   
    10     5    34 1   
    11     6     7 1   
    12     6     8 2   
    13     7    35 1   
    14     7    36 1   
    15     8     9 1   
    16     9    10 1   
    17    10    11 1   
    18    10    37 1   
    19    11    12 1   
    20    11    38 1   
    21    11    39 1   
    22    12    13 1   
    23    12    40 1   
    24    13    14 1   
    25    13    41 1   
    26    13    42 1   
    27    14    15 1   
    28    14    43 1   
    29    14    44 1   
    30    15    16 1   
    31    15    17 2   
    32    16    19 1   
    33    17    18 1   
    34    17    45 1   
    35    18    19 2   
    36    18    46 1   
    37    19    20 1   
    38    20    21 2   
    39    20    22 1   
    40    22    23 1   
    41    22    47 1   
    42    23    24 1   
    43    23    27 1   
    44    23    48 1   
    45    24    25 1   
    46    24    26 1   
    47    27    28 1   
    48    27    49 1   
    49    27    50 1   
    50    28    29 1   
    51    28    51 1   
    52    28    52 1   
    53    29    30 1   
    54    29    31 1   
@<TRIPOS>SUBSTRUCTURE
     1 4HF         1 TEMP              0 ****  ****    0 ROOT
