@<TRIPOS>MOLECULE
4HG
   27    28     1     0     0
SMALL
No Charge or Current Charge


@<TRIPOS>ATOM
      1 C1           6.2290    47.6180    23.8760 ca         1 4HG      -0.117000
      2 C2           5.5930    48.8160    24.2310 ca         1 4HG      -0.080000
      3 C3           4.4300    48.7930    25.0150 ca         1 4HG       0.222000
      4 C4           5.7050    46.3870    24.3040 ca         1 4HG      -0.084000
      5 C5           4.5310    46.3430    25.0960 ca         1 4HG      -0.090000
      6 C6           3.8950    47.5580    25.4500 ca         1 4HG      -0.039000
      7 C7           2.7310    47.5030    26.2370 ca         1 4HG       0.305900
      8 N1           2.1860    46.3500    26.6740 nb         1 4HG      -0.583000
      9 C8           2.7740    45.1580    26.3520 ca         1 4HG       0.265500
     10 C9           3.9650    45.1200    25.5510 ca         1 4HG       0.130100
     11 I1           3.5170    50.7120    25.5120 i          1 4HG      -0.322000
     12 O1           4.5730    43.9340    25.2100 oh         1 4HG      -0.500100
     13 C10          2.0720    43.8910    26.9030 c          1 4HG       0.502600
     14 C11          2.0980    41.3510    27.1000 c3         1 4HG      -0.055000
     15 C12          2.8530    40.1520    26.4640 c          1 4HG       0.713000
     16 O2           2.1930    39.2560    25.9590 o          1 4HG      -0.730000
     17 O3           1.0380    43.9470    27.5670 o          1 4HG      -0.627100
     18 O4           4.0760    40.1790    26.4470 o          1 4HG      -0.730000
     19 N2           2.6340    42.6530    26.6380 ns         1 4HG      -0.447900
     20 H1           7.1310    47.6420    23.2680 ha         1 4HG       0.113000
     21 H2           6.0010    49.7670    23.8990 ha         1 4HG       0.121000
     22 H4           6.2310    45.4840    24.0060 ha         1 4HG       0.112000
     23 H7           2.2000    48.4020    26.5390 h4         1 4HG       0.029100
     24 HO1          5.3610    44.1240    24.6600 ho         1 4HG       0.468000
     25 H111         1.0350    41.2840    26.8370 h1         1 4HG       0.037200
     26 H112         2.1980    41.2850    28.1910 h1         1 4HG       0.037200
     27 HN2          3.4960    42.6540    26.0970 hn         1 4HG       0.346500
@<TRIPOS>BOND
     1     1     2 ar  
     2     1     4 ar  
     3     1    20 1   
     4     2     3 ar  
     5     2    21 1   
     6     3     6 ar  
     7     3    11 1   
     8     4     5 ar  
     9     4    22 1   
    10     5     6 ar  
    11     5    10 ar  
    12     6     7 ar  
    13     7     8 ar  
    14     7    23 1   
    15     8     9 ar  
    16     9    10 ar  
    17     9    13 1   
    18    10    12 1   
    19    12    24 1   
    20    13    17 2   
    21    13    19 1   
    22    14    15 1   
    23    14    19 1   
    24    14    25 1   
    25    14    26 1   
    26    15    16 1   
    27    15    18 1   
    28    19    27 1   
@<TRIPOS>SUBSTRUCTURE
     1 4HG         1 TEMP              0 ****  ****    0 ROOT
