@<TRIPOS>MOLECULE
4HG
   27    28     1     0     0
SMALL
abcg2


@<TRIPOS>ATOM
      1 C1           6.3130    47.6860    24.0900 ca         1 4HG      -0.117000
      2 C2           5.4690    48.8080    24.1690 ca         1 4HG      -0.080000
      3 C3           4.2550    48.7040    24.7910 ca         1 4HG       0.222000
      4 C4           5.9320    46.4850    24.6170 ca         1 4HG      -0.084000
      5 C5           4.6760    46.3530    25.2500 ca         1 4HG      -0.090000
      6 C6           3.8210    47.4800    25.3560 ca         1 4HG      -0.039000
      7 C7           2.5930    47.3000    26.0380 ca         1 4HG       0.305900
      8 N1           2.2250    46.1690    26.5610 nb         1 4HG      -0.583000
      9 C8           3.0040    45.0760    26.4430 ca         1 4HG       0.265500
     10 C9           4.2230    45.1190    25.8010 ca         1 4HG       0.130100
     11 I1           3.0580    50.4350    24.8720 i          1 4HG      -0.322000
     12 O1           4.9650    44.0060    25.7470 oh         1 4HG      -0.500100
     13 C10          2.4360    43.8610    27.1280 c          1 4HG       0.502600
     14 C11          2.0740    41.4470    27.0250 c3         1 4HG      -0.055000
     15 C12          2.3970    40.2850    26.0650 c          1 4HG       0.713000
     16 O2           2.0020    39.1660    26.4360 o          1 4HG      -0.730000
     17 O3           1.8440    43.9910    28.1920 o          1 4HG      -0.627100
     18 O4           3.0170    40.5660    25.0210 o          1 4HG      -0.730000
     19 N2           2.5720    42.6930    26.5030 ns         1 4HG      -0.447900
     20 H1           7.2740    47.7860    23.6050 ha         1 4HG       0.113000
     21 H2           5.7980    49.7430    23.7380 ha         1 4HG       0.121000
     22 H4           6.6220    45.6550    24.5400 ha         1 4HG       0.112000
     23 H7           1.9050    48.1290    26.1550 h4         1 4HG       0.029100
     24 HO1          5.7050    44.0840    25.1360 ho         1 4HG       0.468000
     25 H111         0.9910    41.4940    27.1760 h1         1 4HG       0.037200
     26 H112         2.5110    41.2300    28.0050 h1         1 4HG       0.037200
     27 HN2          3.0640    42.6110    25.6240 hn         1 4HG       0.346500
@<TRIPOS>BOND
     1     1     2 ar  
     2     1     4 ar  
     3     1    20 1   
     4     2     3 ar  
     5     2    21 1   
     6     3     6 ar  
     7     3    11 1   
     8     4     5 ar  
     9     4    22 1   
    10     5     6 ar  
    11     5    10 ar  
    12     6     7 ar  
    13     7     8 ar  
    14     7    23 1   
    15     8     9 ar  
    16     9    10 ar  
    17     9    13 1   
    18    10    12 1   
    19    12    24 1   
    20    13    17 2   
    21    13    19 1   
    22    14    15 1   
    23    14    19 1   
    24    14    25 1   
    25    14    26 1   
    26    15    16 1   
    27    15    18 1   
    28    19    27 1   
@<TRIPOS>SUBSTRUCTURE
     1 4HG         1 TEMP              0 ****  ****    0 ROOT
