@<TRIPOS>MOLECULE
4HI
   67    69     1     0     0
SMALL
No Charge or Current Charge


@<TRIPOS>ATOM
      1 N1          -0.1560     0.1930     1.2320 na         1 4HI      -0.144500
      2 N3          -2.1610    -0.7670     1.0340 nc         1 4HI      -0.692000
      3 C4          -6.1260     0.6430     0.8290 c3         1 4HI       0.156300
      4 C5          -0.8670    -1.0140     1.1330 cd         1 4HI       0.467000
      5 C7           1.3130     0.3310     1.3280 c3         1 4HI       0.064600
      6 C8           2.0110     0.5010    -0.0500 c3         1 4HI      -0.103400
      7 C10          4.2280     0.8290    -1.3140 c3         1 4HI      -0.155400
      8 C13          0.1970     3.3940     0.6510 c3         1 4HI      -0.086100
      9 C15          1.2690    -4.2030     0.8700 ca         1 4HI      -0.159500
     10 C17         -6.4820     1.9520    -1.3210 ca         1 4HI      -0.100000
     11 C20         -6.8890     2.0340    -2.6640 ca         1 4HI      -0.110500
     12 C21         -1.2770    -3.4130     1.7290 ca         1 4HI      -0.060000
     13 C24         -0.8920    -4.7620     1.8140 ca         1 4HI      -0.159500
     14 C26         -7.0670    -0.4100    -1.2870 ca         1 4HI      -0.100000
     15 O2          -3.9320     2.4520     1.1850 o          1 4HI      -0.618100
     16 N2          -4.7020     0.3330     0.9360 ns         1 4HI      -0.499900
     17 C32         -6.5700     0.7300    -0.6240 ca         1 4HI      -0.094300
     18 C23         -7.4740    -0.3270    -2.6300 ca         1 4HI      -0.110500
     19 C29         -7.3850     0.8940    -3.3190 ca         1 4HI      -0.114000
     20 C2          -2.3250     0.5940     1.1230 cc         1 4HI       0.155500
     21 C12         -1.1050     1.2320     1.2910 cd         1 4HI      -0.093300
     22 C14         -0.4730     2.9290     3.0840 c3         1 4HI      -0.086100
     23 C27         -0.3880    -2.4240     1.2330 ca         1 4HI      -0.137500
     24 C30          0.3820    -5.1530     1.3890 ca         1 4HI       0.175000
     25 F1           0.7520    -6.4500     1.4690 f          1 4HI      -0.182000
     26 C18          0.8860    -2.8520     0.7840 ca         1 4HI      -0.060000
     27 C9           3.5500     0.5750     0.0510 c3         1 4HI       0.183300
     28 O4           4.0530    -0.6520     0.5630 oh         1 4HI      -0.704000
     29 C11          5.7720     0.9500    -1.2530 c3         1 4HI       0.178300
     30 O3           6.3280    -0.2990    -0.8260 oh         1 4HI      -0.671000
     31 C35          6.3900     1.2990    -2.6190 c3         1 4HI      -0.240400
     32 C36          7.8930     1.5250    -2.4460 c          1 4HI       0.724000
     33 O6           8.6100     0.5360    -2.4300 o          1 4HI      -0.730000
     34 O7           8.2860     2.6570    -2.2170 o          1 4HI      -0.730000
     35 H4          -6.6940    -0.1460     1.3410 h1         1 4HI       0.052700
     36 H4A         -6.3420     1.5880     1.3440 h1         1 4HI       0.052700
     37 H6          -1.7300     3.2810     1.4310 hc         1 4HI       0.095700
     38 H7           1.5590     1.1890     1.9600 h1         1 4HI       0.074700
     39 H7A          1.7150    -0.5460     1.8490 h1         1 4HI       0.074700
     40 H8           1.7270    -0.3110    -0.7280 hc         1 4HI       0.055200
     41 H8A          1.6500     1.4120    -0.5350 hc         1 4HI       0.055200
     42 H10          3.9510     0.0320    -2.0160 hc         1 4HI       0.045200
     43 H10A         3.8240     1.7610    -1.7290 hc         1 4HI       0.045200
     44 H13          1.2300     3.1310     0.9010 hc         1 4HI       0.038533
     45 H13A        -0.0030     3.1270    -0.3930 hc         1 4HI       0.038533
     46 H13B         0.1150     4.4840     0.7390 hc         1 4HI       0.038533
     47 H15          2.2520    -4.5140     0.5270 ha         1 4HI       0.133000
     48 H21         -2.2740    -3.1360     2.0670 ha         1 4HI       0.137500
     49 H24         -1.5820    -5.5040     2.2080 ha         1 4HI       0.133000
     50 H26         -7.1370    -1.3600    -0.7620 ha         1 4HI       0.113000
     51 HN2         -4.3970    -0.6320     0.8600 hn         1 4HI       0.340500
     52 H23         -7.8570    -1.2110    -3.1370 ha         1 4HI       0.108500
     53 H29         -7.7000     0.9570    -4.3590 ha         1 4HI       0.107000
     54 H14          0.4680     2.4440     3.3630 hc         1 4HI       0.038533
     55 H14A        -0.3800     4.0000     3.3030 hc         1 4HI       0.038533
     56 H14B        -1.2670     2.5230     3.7230 hc         1 4HI       0.038533
     57 H18          1.5960    -2.1620     0.3500 ha         1 4HI       0.137500
     58 H9           3.8160     1.4000     0.7260 h1         1 4HI       0.031700
     59 HO4          4.9530    -0.7220     0.1400 ho         1 4HI       0.485000
     60 H11          6.0310     1.7490    -0.5410 h1         1 4HI       0.089700
     61 HO3          7.2160    -0.3490    -1.2560 ho         1 4HI       0.435000
     62 H35          6.2010     0.4360    -3.2700 hc         1 4HI       0.023700
     63 H35A         5.9020     2.2190    -2.9630 hc         1 4HI       0.023700
     64 C6          -0.8160     2.7080     1.5940 c3         1 4HI      -0.008400
     65 C3          -3.6890     1.2550     1.0910 c          1 4HI       0.543600
     66 H17         -6.0950     2.8370    -0.8210 ha         1 4HI       0.113000
     67 H20         -6.8180     2.9800    -3.1970 ha         1 4HI       0.108500
@<TRIPOS>BOND
     1     1     4 1   
     2     1     5 1   
     3     1    21 1   
     4     2     4 2   
     5     2    20 1   
     6     3    16 1   
     7     3    17 1   
     8     3    35 1   
     9     3    36 1   
    10     4    23 1   
    11     5     6 1   
    12     5    38 1   
    13     5    39 1   
    14     6    27 1   
    15     6    40 1   
    16     6    41 1   
    17     7    27 1   
    18     7    29 1   
    19     7    42 1   
    20     7    43 1   
    21     8    44 1   
    22     8    45 1   
    23     8    46 1   
    24     8    64 1   
    25     9    24 ar  
    26     9    26 ar  
    27     9    47 1   
    28    10    11 ar  
    29    10    17 ar  
    30    10    66 1   
    31    11    19 ar  
    32    11    67 1   
    33    12    13 ar  
    34    12    23 ar  
    35    12    48 1   
    36    13    24 ar  
    37    13    49 1   
    38    14    17 ar  
    39    14    18 ar  
    40    14    50 1   
    41    15    65 2   
    42    16    51 1   
    43    16    65 1   
    44    18    19 ar  
    45    18    52 1   
    46    19    53 1   
    47    20    21 2   
    48    20    65 1   
    49    21    64 1   
    50    22    54 1   
    51    22    55 1   
    52    22    56 1   
    53    22    64 1   
    54    23    26 ar  
    55    24    25 1   
    56    26    57 1   
    57    27    28 1   
    58    27    58 1   
    59    28    59 1   
    60    29    30 1   
    61    29    31 1   
    62    29    60 1   
    63    30    61 1   
    64    31    32 1   
    65    31    62 1   
    66    31    63 1   
    67    32    33 1   
    68    32    34 1   
    69    37    64 1   
@<TRIPOS>SUBSTRUCTURE
     1 4HI         1 TEMP              0 ****  ****    0 ROOT
