@<TRIPOS>MOLECULE
4HI
   67    69     1     0     0
SMALL
abcg2


@<TRIPOS>ATOM
      1 N1          -0.1550     0.1250     1.3670 na         1 4HI      -0.144500
      2 N3          -2.1040    -0.8620     1.1210 nc         1 4HI      -0.692000
      3 C4          -5.9870     0.4520     0.6540 c3         1 4HI       0.156300
      4 C5          -0.8240    -1.0670     1.2720 cd         1 4HI       0.467000
      5 C7           1.2880     0.2900     1.4320 c3         1 4HI       0.064600
      6 C8           1.9120     0.3800     0.0420 c3         1 4HI      -0.103400
      7 C10          3.9990     0.6250    -1.3260 c3         1 4HI      -0.155400
      8 C13          0.2100     3.2610     0.5950 c3         1 4HI      -0.086100
      9 C15          1.4070    -4.1550     1.2340 ca         1 4HI      -0.159500
     10 C17         -7.4390     1.6210    -1.0230 ca         1 4HI      -0.100000
     11 C20         -7.7850     1.9700    -2.3210 ca         1 4HI      -0.110500
     12 C21         -1.1290    -3.3690     2.0180 ca         1 4HI      -0.060000
     13 C24         -0.7350    -4.6800     2.2090 ca         1 4HI      -0.159500
     14 C26         -5.5200     0.4460    -1.8410 ca         1 4HI      -0.100000
     15 O2          -3.8810     2.2480     0.9020 o          1 4HI      -0.618100
     16 N2          -4.6090     0.1140     0.8870 ns         1 4HI      -0.499900
     17 C32         -6.3050     0.8540    -0.7680 ca         1 4HI      -0.094300
     18 C23         -5.8600     0.7980    -3.1410 ca         1 4HI      -0.110500
     19 C29         -6.9950     1.5600    -3.3870 ca         1 4HI      -0.114000
     20 C2          -2.2860     0.4870     1.1220 cc         1 4HI       0.155500
     21 C12         -1.0800     1.1350     1.2840 cd         1 4HI      -0.093300
     22 C14         -0.5290     2.8890     2.9830 c3         1 4HI      -0.086100
     23 C27         -0.2770    -2.4220     1.4370 ca         1 4HI      -0.137500
     24 C30          0.5360    -5.0530     1.8140 ca         1 4HI       0.175000
     25 F1           0.9300    -6.3210     1.9990 f          1 4HI      -0.182000
     26 C18          0.9960    -2.8440     1.0440 ca         1 4HI      -0.060000
     27 C9           3.4270     0.4800     0.0820 c3         1 4HI       0.183300
     28 O4           3.9210    -0.6630     0.7490 oh         1 4HI      -0.704000
     29 C11          5.5020     0.8920    -1.3640 c3         1 4HI       0.178300
     30 O3           6.2330    -0.1440    -0.7050 oh         1 4HI      -0.671000
     31 C35          6.0090     1.0980    -2.7790 c3         1 4HI      -0.240400
     32 C36          7.4940     1.4980    -2.8630 c          1 4HI       0.724000
     33 O6           8.1620     0.9890    -3.7840 o          1 4HI      -0.730000
     34 O7           7.8980     2.3270    -2.0220 o          1 4HI      -0.730000
     35 H4          -6.5810    -0.4230     0.9230 h1         1 4HI       0.052700
     36 H4A         -6.2950     1.2510     1.3320 h1         1 4HI       0.052700
     37 H6          -1.7770     3.0700     1.2780 hc         1 4HI       0.095700
     38 H7           1.5070     1.1870     2.0060 h1         1 4HI       0.074700
     39 H7A          1.6980    -0.5390     2.0060 h1         1 4HI       0.074700
     40 H8           1.6180    -0.4830    -0.5640 hc         1 4HI       0.055200
     41 H8A          1.5150     1.2540    -0.4750 hc         1 4HI       0.055200
     42 H10          3.7580    -0.2690    -1.9150 hc         1 4HI       0.045200
     43 H10A         3.4960     1.4640    -1.8170 hc         1 4HI       0.045200
     44 H13          1.2360     2.9950     0.8480 hc         1 4HI       0.038533
     45 H13A         0.0410     3.0190    -0.4540 hc         1 4HI       0.038533
     46 H13B         0.1280     4.3430     0.7010 hc         1 4HI       0.038533
     47 H15          2.3940    -4.4690     0.9190 ha         1 4HI       0.133000
     48 H21         -2.1190    -3.0680     2.3330 ha         1 4HI       0.137500
     49 H24         -1.4040    -5.3980     2.6650 ha         1 4HI       0.133000
     50 H26         -4.6310    -0.1480    -1.6650 ha         1 4HI       0.113000
     51 HN2         -4.3380    -0.8550     0.9230 hn         1 4HI       0.340500
     52 H23         -5.2350     0.4770    -3.9650 ha         1 4HI       0.108500
     53 H29         -7.2600     1.8330    -4.4000 ha         1 4HI       0.107000
     54 H14          0.4190     2.4610     3.3110 hc         1 4HI       0.038533
     55 H14A        -0.4730     3.9670     3.1420 hc         1 4HI       0.038533
     56 H14B        -1.3150     2.4950     3.6280 hc         1 4HI       0.038533
     57 H18          1.6990    -2.1750     0.5730 ha         1 4HI       0.137500
     58 H9           3.6940     1.3930     0.6420 h1         1 4HI       0.031700
     59 HO4          4.8690    -0.7070     0.5560 ho         1 4HI       0.485000
     60 H11          5.7110     1.7960    -0.7850 h1         1 4HI       0.089700
     61 HO3          6.2550    -0.9120    -1.2870 ho         1 4HI       0.435000
     62 H35          5.8190     0.1990    -3.3750 hc         1 4HI       0.023700
     63 H35A         5.4160     1.8950    -3.2420 hc         1 4HI       0.023700
     64 C6          -0.8240     2.5980     1.5060 c3         1 4HI      -0.008400
     65 C3          -3.6420     1.0470     0.9620 c          1 4HI       0.543600
     66 H17         -8.0580     1.9520    -0.1960 ha         1 4HI       0.113000
     67 H20         -8.6700     2.5690    -2.4990 ha         1 4HI       0.108500
@<TRIPOS>BOND
     1     1     4 1   
     2     1     5 1   
     3     1    21 1   
     4     2     4 2   
     5     2    20 1   
     6     3    16 1   
     7     3    17 1   
     8     3    35 1   
     9     3    36 1   
    10     4    23 1   
    11     5     6 1   
    12     5    38 1   
    13     5    39 1   
    14     6    27 1   
    15     6    40 1   
    16     6    41 1   
    17     7    27 1   
    18     7    29 1   
    19     7    42 1   
    20     7    43 1   
    21     8    44 1   
    22     8    45 1   
    23     8    46 1   
    24     8    64 1   
    25     9    24 ar  
    26     9    26 ar  
    27     9    47 1   
    28    10    11 ar  
    29    10    17 ar  
    30    10    66 1   
    31    11    19 ar  
    32    11    67 1   
    33    12    13 ar  
    34    12    23 ar  
    35    12    48 1   
    36    13    24 ar  
    37    13    49 1   
    38    14    17 ar  
    39    14    18 ar  
    40    14    50 1   
    41    15    65 2   
    42    16    51 1   
    43    16    65 1   
    44    18    19 ar  
    45    18    52 1   
    46    19    53 1   
    47    20    21 2   
    48    20    65 1   
    49    21    64 1   
    50    22    54 1   
    51    22    55 1   
    52    22    56 1   
    53    22    64 1   
    54    23    26 ar  
    55    24    25 1   
    56    26    57 1   
    57    27    28 1   
    58    27    58 1   
    59    28    59 1   
    60    29    30 1   
    61    29    31 1   
    62    29    60 1   
    63    30    61 1   
    64    31    32 1   
    65    31    62 1   
    66    31    63 1   
    67    32    33 1   
    68    32    34 1   
    69    37    64 1   
@<TRIPOS>SUBSTRUCTURE
     1 4HI         1 TEMP              0 ****  ****    0 ROOT
