@<TRIPOS>MOLECULE
4HK
   48    52     1     0     0
SMALL
bcc


@<TRIPOS>ATOM
      1 N1          -8.5490    -2.3180    -0.5830 n1         1 4HK      -0.335800
      2 C1          -7.5850    -1.7010    -0.4560 cg         1 4HK       0.128800
      3 C2          -6.3900    -0.9240    -0.2880 ca         1 4HK       0.497300
      4 N2          -5.2410    -1.5930    -0.3490 nb         1 4HK      -0.631000
      5 C6          -4.1250    -0.9130    -0.1970 ca         1 4HK       0.422200
      6 C5          -4.0770     0.4720     0.0210 ca         1 4HK      -0.105300
      7 C4          -5.2930     1.1490     0.0750 ca         1 4HK      -0.099000
      8 C3          -6.4730     0.4450    -0.0780 ca         1 4HK      -0.198300
      9 C7          -2.7910     1.1260     0.1710 cc         1 4HK      -0.029300
     10 C9          -1.5040     0.6620     0.0130 cd         1 4HK      -0.253600
     11 C10         -0.6720    -0.5290    -0.3380 c5         1 4HK       0.049200
     12 C11          0.7270     0.0530    -0.2360 ca         1 4HK      -0.048300
     13 C22          0.7050     1.4030     0.1310 ca         1 4HK      -0.157500
     14 C8          -0.6920     1.7710     0.2820 cd         1 4HK       0.367800
     15 N4          -1.3870     2.8480     0.5910 nc         1 4HK      -0.472800
     16 N3          -2.6510     2.4370     0.5150 na         1 4HK      -0.007600
     17 C21          1.8910     2.1050     0.2850 ca         1 4HK      -0.054000
     18 C18          3.1110     1.4770     0.0770 ca         1 4HK      -0.109300
     19 C19          4.3960     2.2470     0.2240 c3         1 4HK      -0.019100
     20 C20          4.9360     2.7530    -1.1130 c3         1 4HK      -0.085100
     21 C13          3.1200     0.1210    -0.2990 ca         1 4HK       0.156100
     22 C12          1.9300    -0.5940    -0.4500 ca         1 4HK      -0.207000
     23 O1           4.3410    -0.4120    -0.5110 os         1 4HK      -0.318900
     24 C14          4.5000    -1.8140    -0.6720 c5         1 4HK       0.114100
     25 C17          4.2990    -2.5660     0.6370 c5         1 4HK       0.102400
     26 O2           5.5120    -2.4340     1.3580 os         1 4HK      -0.407600
     27 C16          6.5530    -2.0010     0.4900 c5         1 4HK       0.133400
     28 C15          5.9780    -2.0610    -0.9190 c5         1 4HK      -0.112400
     29 H4          -3.2090    -1.4900    -0.2470 h4         1 4HK       0.034100
     30 H3          -5.3430     2.2190     0.2270 ha         1 4HK       0.138000
     31 H2          -7.4300     0.9450    -0.0380 ha         1 4HK       0.158000
     32 H5          -0.8060    -1.3640     0.3560 hc         1 4HK       0.068700
     33 H6          -0.8790    -0.9160    -1.3390 hc         1 4HK       0.068700
     34 H1          -3.3830     3.0920     0.7390 hn         1 4HK       0.322700
     35 H17          1.8770     3.1490     0.5770 ha         1 4HK       0.146000
     36 H16          4.2170     3.0990     0.8840 hc         1 4HK       0.049200
     37 H15          5.1540     1.6330     0.7140 hc         1 4HK       0.049200
     38 H201         5.1550     1.9290    -1.7920 hc         1 4HK       0.034367
     39 H202         4.2130     3.4080    -1.6020 hc         1 4HK       0.034367
     40 H203         5.8560     3.3200    -0.9690 hc         1 4HK       0.034367
     41 H7           1.9310    -1.6390    -0.7320 ha         1 4HK       0.135000
     42 H8           3.8690    -2.1920    -1.4810 h1         1 4HK       0.062700
     43 H14          3.4740    -2.1780     1.2390 h1         1 4HK       0.055200
     44 H13          4.0820    -3.6180     0.4180 h1         1 4HK       0.055200
     45 H12          6.8550    -0.9810     0.7520 h1         1 4HK       0.050700
     46 H11          7.4250    -2.6480     0.6080 h1         1 4HK       0.050700
     47 H9           6.1020    -3.0560    -1.3500 hc         1 4HK       0.068200
     48 H10          6.4240    -1.3400    -1.6030 hc         1 4HK       0.068200
@<TRIPOS>BOND
     1     1     2 3   
     2     2     3 1   
     3     3     4 ar  
     4     3     8 ar  
     5     4     5 ar  
     6     5     6 ar  
     7     5    29 1   
     8     6     7 ar  
     9     6     9 1   
    10     7     8 ar  
    11     7    30 1   
    12     8    31 1   
    13     9    10 2   
    14     9    16 1   
    15    10    11 1   
    16    10    14 1   
    17    11    12 1   
    18    11    32 1   
    19    11    33 1   
    20    12    13 ar  
    21    12    22 ar  
    22    13    14 1   
    23    13    17 ar  
    24    14    15 2   
    25    15    16 1   
    26    16    34 1   
    27    17    18 ar  
    28    17    35 1   
    29    18    19 1   
    30    18    21 ar  
    31    19    20 1   
    32    19    36 1   
    33    19    37 1   
    34    20    38 1   
    35    20    39 1   
    36    20    40 1   
    37    21    22 ar  
    38    21    23 1   
    39    22    41 1   
    40    23    24 1   
    41    24    25 1   
    42    24    28 1   
    43    24    42 1   
    44    25    26 1   
    45    25    43 1   
    46    25    44 1   
    47    26    27 1   
    48    27    28 1   
    49    27    45 1   
    50    27    46 1   
    51    28    47 1   
    52    28    48 1   
@<TRIPOS>SUBSTRUCTURE
     1 4HK         1 TEMP              0 ****  ****    0 ROOT
