@<TRIPOS>MOLECULE
4HK
   48    52     1     0     0
SMALL
No Charge or Current Charge


@<TRIPOS>ATOM
      1 N1          -8.4650    -2.2330    -1.3140 n1         1 4HK      -0.425000
      2 C1          -7.4940    -1.6620    -0.9980 cg         1 4HK       0.218000
      3 C2          -6.3010    -0.9420    -0.6100 ca         1 4HK       0.432000
      4 N2          -5.2160    -1.6770    -0.2520 nb         1 4HK      -0.631000
      5 C6          -4.0920    -1.0140     0.1120 ca         1 4HK       0.356900
      6 C5          -3.9860     0.3960     0.1360 ca         1 4HK      -0.040000
      7 C4          -5.1220     1.1460    -0.2260 ca         1 4HK      -0.081000
      8 C3          -6.2910     0.4650    -0.6060 ca         1 4HK      -0.115000
      9 C7          -2.7540     1.0800     0.5430 cc         1 4HK      -0.080000
     10 C9          -1.4740     0.6560     0.3560 cd         1 4HK      -0.188300
     11 C10         -0.8720    -0.5630    -0.3110 c5         1 4HK       0.049200
     12 C11          0.5830    -0.0020    -0.2180 ca         1 4HK      -0.048300
     13 C22          0.6920     1.2600     0.3940 ca         1 4HK      -0.157500
     14 C8          -0.6400     1.6570     0.7410 cd         1 4HK       0.302500
     15 N4          -1.2150     2.7560     1.1730 nc         1 4HK      -0.472800
     16 N3          -2.5690     2.3820     1.0540 na         1 4HK      -0.007200
     17 C21          1.9060     1.9420     0.5220 ca         1 4HK      -0.036000
     18 C18          3.0770     1.3140     0.0470 ca         1 4HK      -0.109300
     19 C19          4.4140     2.0420     0.1740 c3         1 4HK      -0.019100
     20 C20          4.7990     2.7840    -1.1190 c3         1 4HK      -0.085100
     21 C13          2.9970     0.0210    -0.5420 ca         1 4HK       0.156100
     22 C12          1.7440    -0.6250    -0.6950 ca         1 4HK      -0.189000
     23 O1           4.1600    -0.5620    -1.0180 os         1 4HK      -0.342100
     24 C14          4.3420    -1.9000    -0.4660 c5         1 4HK       0.137300
     25 C17          4.6310    -1.8030     1.0770 c5         1 4HK       0.125600
     26 O2           6.0140    -2.1950     1.2430 os         1 4HK      -0.454000
     27 C16          6.6850    -1.8960     0.0080 c5         1 4HK       0.156600
     28 C15          5.6860    -2.4300    -1.0400 c5         1 4HK      -0.112400
     29 H4          -3.2580    -1.6420     0.4130 h4         1 4HK       0.034100
     30 H3          -5.1000     2.2340    -0.2250 ha         1 4HK       0.120000
     31 H2          -7.1800     1.0190    -0.8970 ha         1 4HK       0.140000
     32 H5          -0.9980    -1.4900     0.2570 hc         1 4HK       0.068700
     33 H6          -1.2120    -0.7140    -1.3420 hc         1 4HK       0.068700
     34 H1          -3.3120     3.0310     1.3070 hn         1 4HK       0.373000
     35 H17          1.9390     2.9310     0.9740 ha         1 4HK       0.128000
     36 H16          4.3750     2.7670     0.9970 hc         1 4HK       0.049200
     37 H15          5.2150     1.3390     0.4350 hc         1 4HK       0.049200
     38 H201         4.8980     2.0810    -1.9550 hc         1 4HK       0.034367
     39 H202         4.0360     3.5270    -1.3790 hc         1 4HK       0.034367
     40 H203         5.7570     3.3030    -0.9920 hc         1 4HK       0.034367
     41 H7           1.6630    -1.5850    -1.1960 ha         1 4HK       0.117000
     42 H8           3.5030    -2.5590    -0.7210 h1         1 4HK       0.062700
     43 H14          4.5020    -0.7850     1.4670 h1         1 4HK       0.055200
     44 H13          3.9930    -2.4800     1.6590 h1         1 4HK       0.055200
     45 H12          6.8330    -0.8100    -0.0750 h1         1 4HK       0.050700
     46 H11          7.6600    -2.3990    -0.0280 h1         1 4HK       0.050700
     47 H9           5.7000    -3.5250    -1.0730 hc         1 4HK       0.068200
     48 H10          5.8970    -2.0650    -2.0510 hc         1 4HK       0.068200
@<TRIPOS>BOND
     1     1     2 3   
     2     2     3 1   
     3     3     4 ar  
     4     3     8 ar  
     5     4     5 ar  
     6     5     6 ar  
     7     5    29 1   
     8     6     7 ar  
     9     6     9 1   
    10     7     8 ar  
    11     7    30 1   
    12     8    31 1   
    13     9    10 2   
    14     9    16 1   
    15    10    11 1   
    16    10    14 1   
    17    11    12 1   
    18    11    32 1   
    19    11    33 1   
    20    12    13 ar  
    21    12    22 ar  
    22    13    14 1   
    23    13    17 ar  
    24    14    15 2   
    25    15    16 1   
    26    16    34 1   
    27    17    18 ar  
    28    17    35 1   
    29    18    19 1   
    30    18    21 ar  
    31    19    20 1   
    32    19    36 1   
    33    19    37 1   
    34    20    38 1   
    35    20    39 1   
    36    20    40 1   
    37    21    22 ar  
    38    21    23 1   
    39    22    41 1   
    40    23    24 1   
    41    24    25 1   
    42    24    28 1   
    43    24    42 1   
    44    25    26 1   
    45    25    43 1   
    46    25    44 1   
    47    26    27 1   
    48    27    28 1   
    49    27    45 1   
    50    27    46 1   
    51    28    47 1   
    52    28    48 1   
@<TRIPOS>SUBSTRUCTURE
     1 4HK         1 TEMP              0 ****  ****    0 ROOT
