@<TRIPOS>MOLECULE
4HL
   40    41     1     0     0
SMALL
bcc


@<TRIPOS>ATOM
      1 C1           3.7030    -1.4320    26.0550 c3         1 4HL       0.192100
      2 NX1          2.7340    -1.4250    27.1620 n7         1 4HL      -0.634500
      3 NX2          1.4970    -1.8650    26.7320 nu         1 4HL      -0.146900
      4 C4           2.6720    -0.4590    23.9700 ca         1 4HL      -0.065500
      5 C5           2.4180     0.5990    23.1110 ca         1 4HL      -0.184500
      6 C6           2.9570     1.8550    23.3790 ca         1 4HL       0.160100
      7 C7           3.7480     2.0320    24.5130 ca         1 4HL      -0.184500
      8 C2           3.9820     0.9660    25.3650 ca         1 4HL      -0.065500
      9 C3           3.4550    -0.2960    25.1090 ca         1 4HL      -0.151300
     10 N            0.6150     3.0290    25.6060 n8         1 4HL      -0.911800
     11 CA          -0.6800     3.2480    26.2150 c3         1 4HL       0.031500
     12 C           -0.8830     4.7390    26.6130 c          1 4HL       0.933600
     13 O           -0.0700     5.5590    26.1460 o          1 4HL      -0.824800
     14 CG          -0.7580     0.9080    27.0710 cc         1 4HL       0.041600
     15 CD1         -2.0190     0.2460    26.5460 c          1 4HL       0.557500
     16 CD2          0.4030     0.2270    27.1310 cd         1 4HL      -0.353600
     17 CE1         -1.9430    -1.0980    26.0950 cc         1 4HL      -0.521200
     18 CE2          0.4390    -1.1290    26.6900 cd         1 4HL       0.394600
     19 CZ          -0.7790    -1.8500    26.1280 cd         1 4HL       0.453000
     20 OH          -0.6010    -3.0250    25.7670 o          1 4HL      -0.737300
     21 OXT         -1.8700     4.9820    27.3310 o          1 4HL      -0.824800
     22 H11          3.6970    -2.3900    25.5210 h1         1 4HL       0.046700
     23 H12          4.6800    -1.3320    26.5280 h1         1 4HL       0.046700
     24 H3           3.0390    -2.0690    27.8860 hn         1 4HL       0.365800
     25 H4           2.2550    -1.4330    23.7380 ha         1 4HL       0.128500
     26 H5           1.8050     0.4530    22.2300 ha         1 4HL       0.144500
     27 H1           4.1750     3.0030    24.7340 ha         1 4HL       0.144500
     28 H2           4.5970     1.1230    26.2430 ha         1 4HL       0.128500
     29 H7           3.1040     3.6740    22.8050 ho         1 4HL       0.434000
     30 HA          -1.5120     3.0130    25.5320 h1         1 4HL       0.026700
     31 HD2          1.3080     0.6820    27.5070 ha         1 4HL       0.168000
     32 HE1         -2.8490    -1.5570    25.7190 ha         1 4HL       0.154000
     33 H6           1.3860    -2.8170    26.3670 hn         1 4HL       0.317700
     34 OX1         -3.0540     0.9110    26.5400 o          1 4HL      -0.548100
     35 CB          -0.8370     2.3390    27.4550 c3         1 4HL      -0.051200
     36 H            0.5860     2.2530    24.9590 hn         1 4HL       0.335300
     37 HB2         -0.0370     2.5750    28.1590 hc         1 4HL       0.079200
     38 HB3         -1.7920     2.5540    27.9290 hc         1 4HL       0.079200
     39 O1           2.6850     2.8540    22.5170 oh         1 4HL      -0.493100
     40 H8           0.8680     3.8550    25.0800 hn         1 4HL       0.335300
@<TRIPOS>BOND
     1     1     2 1   
     2     1     9 1   
     3     1    22 1   
     4     1    23 1   
     5     2     3 1   
     6     2    24 1   
     7     3    18 2   
     8     3    33 1   
     9     4     5 ar  
    10     4     9 ar  
    11     4    25 1   
    12     5     6 ar  
    13     5    26 1   
    14     6     7 ar  
    15     6    39 1   
    16     7     8 ar  
    17     7    27 1   
    18     8     9 ar  
    19     8    28 1   
    20    10    11 1   
    21    10    36 1   
    22    10    40 1   
    23    11    12 1   
    24    11    30 1   
    25    11    35 1   
    26    12    13 1   
    27    12    21 1   
    28    14    15 1   
    29    14    16 2   
    30    14    35 1   
    31    15    17 1   
    32    15    34 2   
    33    16    18 1   
    34    16    31 1   
    35    17    19 2   
    36    17    32 1   
    37    18    19 1   
    38    19    20 1   
    39    29    39 1   
    40    35    37 1   
    41    35    38 1   
@<TRIPOS>SUBSTRUCTURE
     1 4HL         1 TEMP              0 ****  ****    0 ROOT
