@<TRIPOS>MOLECULE
4HM
   19    19     1     0     0
SMALL
No Charge or Current Charge


@<TRIPOS>ATOM
      1 C1          -0.9910    -0.1170     1.3470 ca         1 4HM       0.119100
      2 C2           0.3430    -0.0760     0.8680 ca         1 4HM       0.118100
      3 C3           0.5800     0.0310    -0.5230 ca         1 4HM      -0.175000
      4 C4          -0.5060     0.0870    -1.4250 ca         1 4HM       0.065100
      5 C5          -1.8230     0.0580    -0.9350 ca         1 4HM      -0.086000
      6 C6          -2.0660    -0.0470     0.4450 ca         1 4HM      -0.179000
      7 O7          -0.3240     0.2070    -2.7890 os         1 4HM      -0.142100
      8 O8           0.8720    -0.5070    -3.2670 oh         1 4HM      -0.440000
      9 O9           1.3810    -0.1380     1.7850 os         1 4HM      -0.319100
     10 O10         -1.2530    -0.2200     2.6880 oh         1 4HM      -0.511100
     11 C11          2.7650    -0.1080     1.3910 c3         1 4HM       0.144900
     12 H3           1.5940     0.0780    -0.9050 ha         1 4HM       0.125000
     13 H5          -2.6570     0.1140    -1.6300 ha         1 4HM       0.133000
     14 H6          -3.0920    -0.0740     0.8050 ha         1 4HM       0.119000
     15 H8           1.5200     0.2310    -3.3060 ho         1 4HM       0.441000
     16 H10         -2.2250    -0.2320     2.8170 ho         1 4HM       0.461000
     17 HC1          3.4120    -0.1720     2.2750 h1         1 4HM       0.041367
     18 HC2          3.0020    -0.9540     0.7340 h1         1 4HM       0.041367
     19 HC3          3.0010     0.8260     0.8660 h1         1 4HM       0.041367
@<TRIPOS>BOND
     1     1     2 ar  
     2     1     6 ar  
     3     1    10 1   
     4     2     3 ar  
     5     2     9 1   
     6     3     4 ar  
     7     3    12 1   
     8     4     5 ar  
     9     4     7 1   
    10     5     6 ar  
    11     5    13 1   
    12     6    14 1   
    13     7     8 1   
    14     8    15 1   
    15     9    11 1   
    16    10    16 1   
    17    11    17 1   
    18    11    18 1   
    19    11    19 1   
@<TRIPOS>SUBSTRUCTURE
     1 4HM         1 TEMP              0 ****  ****    0 ROOT
