@<TRIPOS>MOLECULE
4HM
   19    19     1     0     0
SMALL
abcg2


@<TRIPOS>ATOM
      1 C1          -0.9530    -0.1520     1.3060 ca         1 4HM       0.119100
      2 C2           0.3820    -0.0450     0.8660 ca         1 4HM       0.118100
      3 C3           0.6430     0.1530    -0.4780 ca         1 4HM      -0.175000
      4 C4          -0.4130     0.2330    -1.3870 ca         1 4HM       0.065100
      5 C5          -1.7200     0.1180    -0.9680 ca         1 4HM      -0.086000
      6 C6          -1.9830    -0.0630     0.3890 ca         1 4HM      -0.179000
      7 O7          -0.1640     0.4860    -2.7130 os         1 4HM      -0.142100
      8 O8           0.4180    -0.6690    -3.3050 oh         1 4HM      -0.440000
      9 O9           1.3170    -0.1390     1.8280 os         1 4HM      -0.319100
     10 O10         -1.1410    -0.3410     2.6270 oh         1 4HM      -0.511100
     11 C11          2.6750    -0.0390     1.4490 c3         1 4HM       0.144900
     12 H3           1.6590     0.2570    -0.8370 ha         1 4HM       0.125000
     13 H5          -2.5340     0.1740    -1.6780 ha         1 4HM       0.133000
     14 H6          -3.0100    -0.1440     0.7270 ha         1 4HM       0.119000
     15 H8           1.3140    -0.3630    -3.5080 ho         1 4HM       0.441000
     16 H10         -2.0820    -0.4300     2.8160 ho         1 4HM       0.461000
     17 HC1          3.2590    -0.1580     2.3580 h1         1 4HM       0.041367
     18 HC2          2.9600    -0.8230     0.7420 h1         1 4HM       0.041367
     19 HC3          2.9040     0.9340     1.0070 h1         1 4HM       0.041367
@<TRIPOS>BOND
     1     1     2 ar  
     2     1     6 ar  
     3     1    10 1   
     4     2     3 ar  
     5     2     9 1   
     6     3     4 ar  
     7     3    12 1   
     8     4     5 ar  
     9     4     7 1   
    10     5     6 ar  
    11     5    13 1   
    12     6    14 1   
    13     7     8 1   
    14     8    15 1   
    15     9    11 1   
    16    10    16 1   
    17    11    17 1   
    18    11    18 1   
    19    11    19 1   
@<TRIPOS>SUBSTRUCTURE
     1 4HM         1 TEMP              0 ****  ****    0 ROOT
