@<TRIPOS>MOLECULE
4HN
   45    48     1     0     0
SMALL
bcc


@<TRIPOS>ATOM
      1 C1           1.9520     1.8470    -1.8050 cg         1 4HN       0.254800
      2 C2          -5.7080    -1.5320    -1.8140 ca         1 4HN      -0.169000
      3 C3          -6.5830    -0.9880    -0.8890 ca         1 4HN      -0.082000
      4 C4          -4.3430    -1.3430    -1.6440 ca         1 4HN      -0.080000
      5 C5          -1.5290    -1.5540    -0.5440 ca         1 4HN      -0.119500
      6 C6          -1.7890     0.8080    -0.2450 ca         1 4HN      -0.119500
      7 C7          -0.1540    -1.4180    -0.4600 ca         1 4HN      -0.091000
      8 C8          -0.4130     0.9500    -0.1800 ca         1 4HN      -0.091000
      9 C9          -6.1040    -0.2690     0.1990 ca         1 4HN      -0.223000
     10 C10          4.4970    -1.7990     1.5070 ca         1 4HN      -0.286600
     11 C11          5.8540    -1.7110     1.6570 ca         1 4HN       0.411200
     12 C12          6.0190     0.1270     0.3260 ca         1 4HN       0.440200
     13 C13          2.5940     0.9720    -0.8890 ca         1 4HN      -0.199300
     14 C14          4.6280     0.1410     0.0900 ca         1 4HN      -0.363600
     15 C15         -2.3710    -0.4450    -0.4360 cp         1 4HN       0.005000
     16 C16          0.4200    -0.1610    -0.2900 cp         1 4HN      -0.173500
     17 C17         -3.8330    -0.6180    -0.5720 cp         1 4HN      -0.082000
     18 C18          3.8340    -0.8530     0.7040 ca         1 4HN       0.478600
     19 C19         -4.7330    -0.0820     0.3680 ca         1 4HN       0.164100
     20 C20          3.9690     1.0800    -0.7450 ca         1 4HN       0.249100
     21 C21          1.8870    -0.0440    -0.1850 cp         1 4HN       0.580800
     22 C22         -4.1700     1.8930     3.3760 c3         1 4HN      -0.095100
     23 C23         -5.0430     1.1950     2.3610 c3         1 4HN       0.141400
     24 N24          1.4600     2.5530    -2.5720 n1         1 4HN      -0.359800
     25 N25          6.6140    -0.7590     1.0780 nb         1 4HN      -0.664000
     26 N26          2.4940    -0.9260     0.5640 nb         1 4HN      -0.695000
     27 O28         -4.1930     0.5740     1.4070 os         1 4HN      -0.321900
     28 H2          -6.0780    -2.0900    -2.6630 ha         1 4HN       0.135000
     29 H3          -7.6510    -1.1190    -1.0040 ha         1 4HN       0.130000
     30 H4          -3.6530    -1.7550    -2.3700 ha         1 4HN       0.136000
     31 H9          -6.8100     0.1340     0.9120 ha         1 4HN       0.135000
     32 H5          -1.9560    -2.5390    -0.6830 ha         1 4HN       0.139000
     33 H7           0.4780    -2.2930    -0.5370 ha         1 4HN       0.140500
     34 H6          -2.4090     1.6890    -0.1570 ha         1 4HN       0.139000
     35 H8           0.0010     1.9360    -0.0120 ha         1 4HN       0.140500
     36 H10          3.9300    -2.5800     1.9940 ha         1 4HN       0.164000
     37 H11          6.3820    -2.4290     2.2720 h4         1 4HN       0.027100
     38 H12          6.6680     0.8740    -0.1210 h4         1 4HN       0.010100
     39 H27          5.5360     2.0440    -1.2910 ho         1 4HN       0.447000
     40 H221        -4.8000     2.4010     4.1060 hc         1 4HN       0.048367
     41 H222        -3.5370     1.1870     3.9130 hc         1 4HN       0.048367
     42 H223        -3.5320     2.6410     2.9040 hc         1 4HN       0.048367
     43 H231        -5.6770     0.4480     2.8510 h1         1 4HN       0.033700
     44 H232        -5.7030     1.9140     1.8660 h1         1 4HN       0.033700
     45 O27          4.5780     2.0390    -1.4100 oh         1 4HN      -0.463100
@<TRIPOS>BOND
     1     1    13 1   
     2     1    24 3   
     3     2     3 ar  
     4     2     4 ar  
     5     2    28 1   
     6     3     9 ar  
     7     3    29 1   
     8     4    17 ar  
     9     4    30 1   
    10     5     7 ar  
    11     5    15 ar  
    12     5    32 1   
    13     6     8 ar  
    14     6    15 ar  
    15     6    34 1   
    16     7    16 ar  
    17     7    33 1   
    18     8    16 ar  
    19     8    35 1   
    20     9    19 ar  
    21     9    31 1   
    22    10    11 ar  
    23    10    18 ar  
    24    10    36 1   
    25    11    25 ar  
    26    11    37 1   
    27    12    14 ar  
    28    12    25 ar  
    29    12    38 1   
    30    13    20 ar  
    31    13    21 ar  
    32    14    18 ar  
    33    14    20 ar  
    34    15    17 1   
    35    16    21 1   
    36    17    19 ar  
    37    18    26 ar  
    38    19    27 1   
    39    20    45 1   
    40    21    26 ar  
    41    22    23 1   
    42    22    40 1   
    43    22    41 1   
    44    22    42 1   
    45    23    27 1   
    46    23    43 1   
    47    23    44 1   
    48    39    45 1   
@<TRIPOS>SUBSTRUCTURE
     1 4HN         1 TEMP              0 ****  ****    0 ROOT
