@<TRIPOS>MOLECULE
4HN
   45    48     1     0     0
SMALL
No Charge or Current Charge


@<TRIPOS>ATOM
      1 C1           2.0330     1.8740    -1.9090 cg         1 4HN       0.344000
      2 C2          -5.8150    -1.5590    -1.8290 ca         1 4HN      -0.151000
      3 C3          -6.6960    -1.0130    -0.8840 ca         1 4HN      -0.064000
      4 C4          -4.4290    -1.3720    -1.6930 ca         1 4HN      -0.062000
      5 C5          -1.5350    -1.5520    -0.6710 ca         1 4HN      -0.101500
      6 C6          -1.8300     0.8180    -0.2620 ca         1 4HN      -0.101500
      7 C7          -0.1420    -1.3940    -0.5880 ca         1 4HN      -0.073000
      8 C8          -0.4370     0.9790    -0.1790 ca         1 4HN      -0.073000
      9 C9          -6.1910    -0.2820     0.2040 ca         1 4HN      -0.205000
     10 C10          4.4810    -1.7140     1.6180 ca         1 4HN      -0.138000
     11 C11          5.8650    -1.6590     1.8010 ca         1 4HN       0.345900
     12 C12          6.0600     0.1140     0.3310 ca         1 4HN       0.374900
     13 C13          2.6750     0.9930    -0.9780 ca         1 4HN      -0.134000
     14 C14          4.6730     0.1330     0.0850 ca         1 4HN      -0.233000
     15 C15         -2.4080    -0.4510    -0.5060 cp         1 4HN       0.005000
     16 C16          0.4400    -0.1230    -0.3510 cp         1 4HN      -0.173500
     17 C17         -3.8910    -0.6310    -0.6110 cp         1 4HN      -0.082000
     18 C18          3.8660    -0.8070     0.7500 ca         1 4HN       0.348000
     19 C19         -4.7980    -0.0910     0.3450 ca         1 4HN       0.164100
     20 C20          4.0690     1.0470    -0.8000 ca         1 4HN       0.249100
     21 C21          1.9320     0.0310    -0.2540 cp         1 4HN       0.515500
     22 C22         -4.1270     1.8610     3.4480 c3         1 4HN      -0.095100
     23 C23         -5.0720     1.1830     2.4440 c3         1 4HN       0.164600
     24 N24          1.5010     2.5870    -2.6660 n1         1 4HN      -0.449000
     25 N25          6.6510    -0.7610     1.1710 nb         1 4HN      -0.664000
     26 N26          2.5350    -0.8530     0.5700 nb         1 4HN      -0.695000
     27 O28         -4.2590     0.5930     1.4180 os         1 4HN      -0.345100
     28 H2          -6.2060    -2.1270    -2.6710 ha         1 4HN       0.117000
     29 H3          -7.7690    -1.1600    -0.9920 ha         1 4HN       0.112000
     30 H4          -3.7630    -1.7950    -2.4410 ha         1 4HN       0.118000
     31 H9          -6.8940     0.1220     0.9260 ha         1 4HN       0.117000
     32 H5          -1.9460    -2.5410    -0.8550 ha         1 4HN       0.121000
     33 H7           0.4970    -2.2660    -0.7140 ha         1 4HN       0.122500
     34 H6          -2.4710     1.6880    -0.1410 ha         1 4HN       0.121000
     35 H8          -0.0350     1.9690     0.0300 ha         1 4HN       0.122500
     36 H10          3.8920    -2.4540     2.1480 ha         1 4HN       0.146000
     37 H11          6.3640    -2.3560     2.4740 h4         1 4HN       0.027100
     38 H12          6.7330     0.8170    -0.1560 h4         1 4HN       0.010100
     39 H27          5.7570     1.8730    -1.2660 ho         1 4HN       0.486000
     40 H221        -4.7030     2.3300     4.2540 hc         1 4HN       0.048367
     41 H222        -3.4460     1.1270     3.8930 hc         1 4HN       0.048367
     42 H223        -3.5310     2.6380     2.9530 hc         1 4HN       0.048367
     43 H231        -5.6660     0.4180     2.9610 h1         1 4HN       0.033700
     44 H232        -5.7530     1.9330     2.0200 h1         1 4HN       0.033700
     45 O27          4.8090     1.9730    -1.4900 oh         1 4HN      -0.502100
@<TRIPOS>BOND
     1     1    13 1   
     2     1    24 3   
     3     2     3 ar  
     4     2     4 ar  
     5     2    28 1   
     6     3     9 ar  
     7     3    29 1   
     8     4    17 ar  
     9     4    30 1   
    10     5     7 ar  
    11     5    15 ar  
    12     5    32 1   
    13     6     8 ar  
    14     6    15 ar  
    15     6    34 1   
    16     7    16 ar  
    17     7    33 1   
    18     8    16 ar  
    19     8    35 1   
    20     9    19 ar  
    21     9    31 1   
    22    10    11 ar  
    23    10    18 ar  
    24    10    36 1   
    25    11    25 ar  
    26    11    37 1   
    27    12    14 ar  
    28    12    25 ar  
    29    12    38 1   
    30    13    20 ar  
    31    13    21 ar  
    32    14    18 ar  
    33    14    20 ar  
    34    15    17 1   
    35    16    21 1   
    36    17    19 ar  
    37    18    26 ar  
    38    19    27 1   
    39    20    45 1   
    40    21    26 ar  
    41    22    23 1   
    42    22    40 1   
    43    22    41 1   
    44    22    42 1   
    45    23    27 1   
    46    23    43 1   
    47    23    44 1   
    48    39    45 1   
@<TRIPOS>SUBSTRUCTURE
     1 4HN         1 TEMP              0 ****  ****    0 ROOT
