@<TRIPOS>MOLECULE
4HO
   16    16     1     0     0
SMALL
abcg2


@<TRIPOS>ATOM
      1 O2          -1.6080    -1.6980     0.0430 o          1 4HO      -0.585000
      2 C1          -0.7010    -0.8580     0.0060 c          1 4HO       0.537200
      3 C2           0.7070    -1.0740     0.0220 cc         1 4HO      -0.331200
      4 C3           1.6060    -0.0410    -0.0260 cd         1 4HO       0.033800
      5 C6           3.0810    -0.2890    -0.0170 c3         1 4HO      -0.062900
      6 C4           1.1270     1.2890    -0.0930 cd         1 4HO      -0.308000
      7 C5          -0.2140     1.5140    -0.1060 cc         1 4HO      -0.002400
      8 N1          -1.0630     0.4760    -0.0580 n          1 4HO      -0.125500
      9 O1          -2.3930     0.7380    -0.0710 oh         1 4HO      -0.447100
     10 H1           1.0420    -2.1020     0.0760 ha         1 4HO       0.213000
     11 H2           3.5230     0.0010    -0.9720 hc         1 4HO       0.052367
     12 H3           3.5680     0.3100     0.7540 hc         1 4HO       0.052367
     13 H4           3.3160    -1.3360     0.1630 hc         1 4HO       0.052367
     14 H5           1.8050     2.1290    -0.1300 ha         1 4HO       0.204000
     15 H6          -0.6570     2.4990    -0.1530 h4         1 4HO       0.221000
     16 H7          -2.7860    -0.1570    -0.0250 ho         1 4HO       0.496000
@<TRIPOS>BOND
     1     1     2 2   
     2     2     3 1   
     3     2     8 1   
     4     3     4 2   
     5     3    10 1   
     6     4     5 1   
     7     4     6 1   
     8     5    11 1   
     9     5    12 1   
    10     5    13 1   
    11     6     7 2   
    12     6    14 1   
    13     7     8 1   
    14     7    15 1   
    15     8     9 1   
    16     9    16 1   
@<TRIPOS>SUBSTRUCTURE
     1 4HO         1 TEMP              0 ****  ****    0 ROOT
