@<TRIPOS>MOLECULE
4HO
   16    16     1     0     0
SMALL
No Charge or Current Charge


@<TRIPOS>ATOM
      1 O2          -1.4480    -1.9170    -0.3200 o          1 4HO      -0.585000
      2 C1          -0.6920    -0.9570    -0.2320 c          1 4HO       0.537200
      3 C2           0.7660    -1.1040    -0.1470 cc         1 4HO      -0.331200
      4 C3           1.6560    -0.0560    -0.0360 cd         1 4HO       0.033800
      5 C6           3.1440    -0.2710     0.0460 c3         1 4HO      -0.062900
      6 C4           1.0980     1.2710    -0.0080 cd         1 4HO      -0.308000
      7 C5          -0.2690     1.4580    -0.0860 cc         1 4HO      -0.002400
      8 N1          -1.1440     0.3850    -0.1940 n          1 4HO      -0.125500
      9 O1          -2.5610     0.6290    -0.2770 oh         1 4HO      -0.447100
     10 H1           1.1120    -2.1310    -0.1770 ha         1 4HO       0.213000
     11 H2           3.5990    -0.2330    -0.9510 hc         1 4HO       0.052367
     12 H3           3.6240     0.4980     0.6630 hc         1 4HO       0.052367
     13 H4           3.3850    -1.2450     0.4880 hc         1 4HO       0.052367
     14 H5           1.7530     2.1350     0.0740 ha         1 4HO       0.204000
     15 H6          -0.7820     2.4150    -0.0790 h4         1 4HO       0.221000
     16 H7          -2.8860     0.5240     0.6470 ho         1 4HO       0.496000
@<TRIPOS>BOND
     1     1     2 2   
     2     2     3 1   
     3     2     8 1   
     4     3     4 2   
     5     3    10 1   
     6     4     5 1   
     7     4     6 1   
     8     5    11 1   
     9     5    12 1   
    10     5    13 1   
    11     6     7 2   
    12     6    14 1   
    13     7     8 1   
    14     7    15 1   
    15     8     9 1   
    16     9    16 1   
@<TRIPOS>SUBSTRUCTURE
     1 4HO         1 TEMP              0 ****  ****    0 ROOT
