@<TRIPOS>MOLECULE
4HP
   18    18     1     0     0
SMALL
abcg2


@<TRIPOS>ATOM
      1 C8           0.1640     0.2710     2.5690 c          1 4HP       0.723000
      2 O1           0.4880     1.3490     2.0420 o          1 4HP      -0.728000
      3 O2           0.0260     0.0430     3.7880 o          1 4HP      -0.728000
      4 C7          -0.0840    -0.9450     1.6410 c3         1 4HP      -0.185100
      5 C1          -0.0970    -0.6310     0.1780 ca         1 4HP      -0.020300
      6 C2           1.0870    -0.4470    -0.5320 ca         1 4HP      -0.077000
      7 C3           1.0870    -0.1400    -1.8850 ca         1 4HP      -0.177500
      8 C4          -0.1190    -0.0050    -2.5690 ca         1 4HP       0.089100
      9 C5          -1.3130    -0.1860    -1.8790 ca         1 4HP      -0.177500
     10 C6          -1.2900    -0.4970    -0.5260 ca         1 4HP      -0.077000
     11 O4          -0.1830     0.2940    -3.8870 oh         1 4HP      -0.557100
     12 H71          0.6940    -1.6860     1.8580 hc         1 4HP       0.030200
     13 H72         -1.0260    -1.4160     1.9330 hc         1 4HP       0.030200
     14 H2           2.0380    -0.5520    -0.0230 ha         1 4HP       0.108000
     15 H3           2.0280    -0.0060    -2.4080 ha         1 4HP       0.096000
     16 H5          -2.2570    -0.0830    -2.4010 ha         1 4HP       0.096000
     17 H6          -2.2320    -0.6370    -0.0090 ha         1 4HP       0.108000
     18 HO4          0.7030     0.4170    -4.2420 ho         1 4HP       0.446000
@<TRIPOS>BOND
     1     1     2 1   
     2     1     3 1   
     3     1     4 1   
     4     4     5 1   
     5     4    12 1   
     6     4    13 1   
     7     5     6 ar  
     8     5    10 ar  
     9     6     7 ar  
    10     6    14 1   
    11     7     8 ar  
    12     7    15 1   
    13     8     9 ar  
    14     8    11 1   
    15     9    10 ar  
    16     9    16 1   
    17    10    17 1   
    18    11    18 1   
@<TRIPOS>SUBSTRUCTURE
     1 4HP         1 TEMP              0 ****  ****    0 ROOT
