@<TRIPOS>MOLECULE
4HP
   18    18     1     0     0
SMALL
No Charge or Current Charge


@<TRIPOS>ATOM
      1 C8           0.1110     0.2550     2.5220 c          1 4HP       0.723000
      2 O1           1.1780     0.8200     2.7160 o          1 4HP      -0.728000
      3 O2          -0.9680     0.7130     2.8690 o          1 4HP      -0.728000
      4 C7           0.1140    -1.0240     1.6700 c3         1 4HP      -0.185100
      5 C1          -0.0090    -0.6590     0.1930 ca         1 4HP      -0.020300
      6 C2           1.1440    -0.4260    -0.5820 ca         1 4HP      -0.077000
      7 C3           1.0310    -0.0920    -1.9440 ca         1 4HP      -0.177500
      8 C4          -0.2370     0.0120    -2.5370 ca         1 4HP       0.089100
      9 C5          -1.3900    -0.2170    -1.7720 ca         1 4HP      -0.177500
     10 C6          -1.2790    -0.5510    -0.4110 ca         1 4HP      -0.077000
     11 O4          -0.3520     0.3350    -3.8550 oh         1 4HP      -0.557100
     12 H71          1.0660    -1.5560     1.7920 hc         1 4HP       0.030200
     13 H72         -0.7540    -1.6460     1.9220 hc         1 4HP       0.030200
     14 H2           2.1300    -0.5030    -0.1290 ha         1 4HP       0.108000
     15 H3           1.9300     0.0850    -2.5290 ha         1 4HP       0.096000
     16 H5          -2.3730    -0.1350    -2.2310 ha         1 4HP       0.096000
     17 H6          -2.1780    -0.7250     0.1750 ha         1 4HP       0.108000
     18 HO4          0.5500     0.4580    -4.2220 ho         1 4HP       0.446000
@<TRIPOS>BOND
     1     1     2 1   
     2     1     3 1   
     3     1     4 1   
     4     4     5 1   
     5     4    12 1   
     6     4    13 1   
     7     5     6 ar  
     8     5    10 ar  
     9     6     7 ar  
    10     6    14 1   
    11     7     8 ar  
    12     7    15 1   
    13     8     9 ar  
    14     8    11 1   
    15     9    10 ar  
    16     9    16 1   
    17    10    17 1   
    18    11    18 1   
@<TRIPOS>SUBSTRUCTURE
     1 4HP         1 TEMP              0 ****  ****    0 ROOT
