@<TRIPOS>MOLECULE
4HQ
   28    29     1     0     0
SMALL
abcg2


@<TRIPOS>ATOM
      1 N1           0.7480     0.3350    -0.7690 n          1 4HQ      -0.382800
      2 N3          -3.6350    -0.7850     0.1910 nc         1 4HQ      -0.430300
      3 C4           2.2140    -1.2240     0.3960 c6         1 4HQ       0.139800
      4 C5          -0.4630     0.8460    -0.5270 c          1 4HQ       0.542600
      5 C6          -1.6330    -0.0640    -0.4000 cd         1 4HQ       0.152500
      6 C7          -2.7670     0.1460     0.4570 cd         1 4HQ       0.498900
      7 C2           1.8840     1.2180    -0.9990 c6         1 4HQ       0.096500
      8 C3           1.1400    -1.0630    -0.6680 c6         1 4HQ       0.096500
      9 C1           2.9370     1.0180     0.0760 c6         1 4HQ       0.139800
     10 C            4.4100    -0.5750     1.0900 c3         1 4HQ       0.151100
     11 N2          -1.8830    -1.0900    -1.1430 nc         1 4HQ      -0.297300
     12 N            3.3510    -0.3690     0.1280 n3         1 4HQ      -0.713600
     13 N4          -2.9010     1.0770     1.4280 nv         1 4HQ      -1.025900
     14 O           -0.7020     2.0450    -0.4210 o          1 4HQ      -0.614100
     15 O1          -3.0810    -1.5390    -0.7950 os         1 4HQ       0.111600
     16 H10          1.7690    -1.0170     1.3860 h1         1 4HQ       0.044200
     17 H9           2.5400    -2.2660     0.4000 h1         1 4HQ       0.044200
     18 H6           2.3050     0.9770    -1.9780 h1         1 4HQ       0.070450
     19 H5           1.5520     2.2520    -1.0180 h1         1 4HQ       0.070450
     20 H7           0.2930    -1.6920    -0.4160 h1         1 4HQ       0.070450
     21 H8           1.5230    -1.3900    -1.6380 h1         1 4HQ       0.070450
     22 H3           3.8000     1.6440    -0.1630 h1         1 4HQ       0.044200
     23 H4           2.5390     1.3660     1.0450 h1         1 4HQ       0.044200
     24 H2           4.1140    -0.3260     2.1210 h1         1 4HQ       0.034367
     25 H1           4.7290    -1.6180     1.0770 h1         1 4HQ       0.034367
     26 H            5.2730     0.0420     0.8320 h1         1 4HQ       0.034367
     27 H12         -2.4190     1.9470     1.2650 hn         1 4HQ       0.487500
     28 H11         -3.8260     1.1910     1.8110 hn         1 4HQ       0.487500
@<TRIPOS>BOND
     1     1     4 1   
     2     1     7 1   
     3     1     8 1   
     4     2     6 2   
     5     2    15 1   
     6     3     8 1   
     7     3    12 1   
     8     3    16 1   
     9     3    17 1   
    10     4     5 1   
    11     4    14 2   
    12     5     6 1   
    13     5    11 2   
    14     6    13 1   
    15     7     9 1   
    16     7    18 1   
    17     7    19 1   
    18     8    20 1   
    19     8    21 1   
    20     9    12 1   
    21     9    22 1   
    22     9    23 1   
    23    10    12 1   
    24    10    24 1   
    25    10    25 1   
    26    10    26 1   
    27    11    15 1   
    28    13    27 1   
    29    13    28 1   
@<TRIPOS>SUBSTRUCTURE
     1 4HQ         1 TEMP              0 ****  ****    0 ROOT
