@<TRIPOS>MOLECULE
4HQ
   28    29     1     0     0
SMALL
No Charge or Current Charge


@<TRIPOS>ATOM
      1 N1           0.6550     0.4020     0.1790 n          1 4HQ      -0.382800
      2 N3          -4.0280    -0.8060    -0.2070 nc         1 4HQ      -0.430300
      3 C4           2.5830    -1.3320     0.4420 c6         1 4HQ       0.139800
      4 C5          -0.7070     0.8380     0.0840 c          1 4HQ       0.542600
      5 C6          -1.8410    -0.1560    -0.0340 cd         1 4HQ       0.152500
      6 C7          -3.2170     0.2050    -0.0760 cd         1 4HQ       0.498900
      7 C2           1.7400     1.4230    -0.0210 c6         1 4HQ       0.096500
      8 C3           1.0930    -1.0350     0.1150 c6         1 4HQ       0.096500
      9 C1           3.1850     0.9930     0.3410 c6         1 4HQ       0.139800
     10 C            4.9330    -0.7150     0.0500 c3         1 4HQ       0.151100
     11 N2          -1.7440    -1.4740    -0.1430 nc         1 4HQ      -0.297300
     12 N            3.5140    -0.3570    -0.1710 n3         1 4HQ      -0.713600
     13 N4          -3.7480     1.4560     0.0080 nv         1 4HQ      -1.025900
     14 O           -0.9320     2.0460     0.0910 o          1 4HQ      -0.614100
     15 O1          -3.1090    -1.8920    -0.2500 os         1 4HQ       0.111600
     16 H10          2.7050    -1.3260     1.5350 h1         1 4HQ       0.044200
     17 H9           2.8160    -2.3520     0.1040 h1         1 4HQ       0.044200
     18 H6           1.7310     1.7150    -1.0810 h1         1 4HQ       0.070450
     19 H5           1.5070     2.3280     0.5570 h1         1 4HQ       0.070450
     20 H7           0.5060    -1.6300     0.8280 h1         1 4HQ       0.070450
     21 H8           0.8840    -1.4150    -0.8950 h1         1 4HQ       0.070450
     22 H3           3.8820     1.7410    -0.0640 h1         1 4HQ       0.044200
     23 H4           3.2940     1.0180     1.4360 h1         1 4HQ       0.044200
     24 H2           5.1730    -0.7310     1.1220 h1         1 4HQ       0.034367
     25 H1           5.1510    -1.7080    -0.3660 h1         1 4HQ       0.034367
     26 H            5.5960     0.0100    -0.4410 h1         1 4HQ       0.034367
     27 H12         -3.1040     2.2440    -0.0690 hn         1 4HQ       0.487500
     28 H11         -4.7050     1.5980    -0.3040 hn         1 4HQ       0.487500
@<TRIPOS>BOND
     1     1     4 1   
     2     1     7 1   
     3     1     8 1   
     4     2     6 2   
     5     2    15 1   
     6     3     8 1   
     7     3    12 1   
     8     3    16 1   
     9     3    17 1   
    10     4     5 1   
    11     4    14 2   
    12     5     6 1   
    13     5    11 2   
    14     6    13 1   
    15     7     9 1   
    16     7    18 1   
    17     7    19 1   
    18     8    20 1   
    19     8    21 1   
    20     9    12 1   
    21     9    22 1   
    22     9    23 1   
    23    10    12 1   
    24    10    24 1   
    25    10    25 1   
    26    10    26 1   
    27    11    15 1   
    28    13    27 1   
    29    13    28 1   
@<TRIPOS>SUBSTRUCTURE
     1 4HQ         1 TEMP              0 ****  ****    0 ROOT
