@<TRIPOS>MOLECULE
4HR
   16    16     1     0     0
SMALL
bcc


@<TRIPOS>ATOM
      1 C1           1.0210    -0.4320     0.0030 ca         1 4HR      -0.059300
      2 C2           2.3420     0.0110     0.0170 ca         1 4HR      -0.103000
      3 C3           2.6520     1.3640     0.0170 ca         1 4HR      -0.120000
      4 C4           1.6410     2.3110     0.0040 ca         1 4HR      -0.127000
      5 C5           0.3160     1.9000    -0.0100 ca         1 4HR      -0.104000
      6 C6           0.0250     0.5440    -0.0100 ca         1 4HR      -0.016900
      7 BR          -1.8010     0.0330    -0.0290 br         1 4HR      -0.112100
      8 C            0.6880    -1.9000     0.0040 c3         1 4HR       0.182700
      9 O            1.8690    -2.6570     0.0230 oh         1 4HR      -0.597800
     10 H1           3.1450    -0.7120     0.0280 ha         1 4HR       0.154000
     11 H2           3.6890     1.6730     0.0270 ha         1 4HR       0.135000
     12 H3           1.8710     3.3680     0.0020 ha         1 4HR       0.135000
     13 H4          -0.4790     2.6330    -0.0210 ha         1 4HR       0.146000
     14 H5           0.0590    -2.1210     0.8770 h1         1 4HR       0.038700
     15 H6           0.0820    -2.1280    -0.8830 h1         1 4HR       0.038700
     16 H7           1.6240    -3.5860     0.0070 ho         1 4HR       0.411000
@<TRIPOS>BOND
     1     1     2 ar  
     2     1     6 ar  
     3     1     8 1   
     4     2     3 ar  
     5     2    10 1   
     6     3     4 ar  
     7     3    11 1   
     8     4     5 ar  
     9     4    12 1   
    10     5     6 ar  
    11     5    13 1   
    12     6     7 1   
    13     8     9 1   
    14     8    14 1   
    15     8    15 1   
    16     9    16 1   
@<TRIPOS>SUBSTRUCTURE
     1 4HR         1 TEMP              0 ****  ****    0 ROOT
