@<TRIPOS>MOLECULE
4HR
   16    16     1     0     0
SMALL
No Charge or Current Charge


@<TRIPOS>ATOM
      1 C1           1.0450    -0.4230     0.0030 ca         1 4HR      -0.059300
      2 C2           2.3860     0.0300     0.0170 ca         1 4HR      -0.085000
      3 C3           2.6790     1.4050     0.0170 ca         1 4HR      -0.102000
      4 C4           1.6400     2.3480     0.0040 ca         1 4HR      -0.109000
      5 C5           0.3060     1.9150    -0.0100 ca         1 4HR      -0.086000
      6 C6           0.0080     0.5400    -0.0110 ca         1 4HR      -0.016900
      7 Br          -1.8390     0.0140    -0.0300 br         1 4HR      -0.112100
      8 C            0.6940    -1.9190     0.0020 c3         1 4HR       0.205900
      9 O            1.8510    -2.7700     0.0170 oh         1 4HR      -0.660000
     10 H1           3.2120    -0.6770     0.0280 ha         1 4HR       0.136000
     11 H2           3.7150     1.7390     0.0280 ha         1 4HR       0.117000
     12 H3           1.8680     3.4120     0.0040 ha         1 4HR       0.117000
     13 H4          -0.5000     2.6450    -0.0210 ha         1 4HR       0.128000
     14 H5           0.0690    -2.1300     0.8800 h1         1 4HR       0.038700
     15 H6           0.0890    -2.1340    -0.8880 h1         1 4HR       0.038700
     16 H7           1.5200    -3.6960     0.0160 ho         1 4HR       0.450000
@<TRIPOS>BOND
     1     1     2 ar  
     2     1     6 ar  
     3     1     8 1   
     4     2     3 ar  
     5     2    10 1   
     6     3     4 ar  
     7     3    11 1   
     8     4     5 ar  
     9     4    12 1   
    10     5     6 ar  
    11     5    13 1   
    12     6     7 1   
    13     8     9 1   
    14     8    14 1   
    15     8    15 1   
    16     9    16 1   
@<TRIPOS>SUBSTRUCTURE
     1 4HR         1 TEMP              0 ****  ****    0 ROOT
