@<TRIPOS>MOLECULE
4HS
   12    12     1     0     0
SMALL
No Charge or Current Charge


@<TRIPOS>ATOM
      1 C1          -0.5000     1.1410     0.0180 cc         1 4HS       0.003600
      2 C2          -2.6700     0.0050     0.0030 c          1 4HS       0.553200
      3 C3          -1.9030    -1.2440     0.0170 cc         1 4HS      -0.314200
      4 C4          -0.5200    -1.2890     0.0310 cd         1 4HS      -0.069000
      5 O           -3.8890     0.0600    -0.0090 o          1 4HS      -0.546000
      6 N           -1.8880     1.1290     0.0040 ns         1 4HS      -0.363100
      7 C            0.2110    -0.0450     0.0310 cd         1 4HS      -0.165300
      8 Br           2.0970    -0.0500     0.0490 br         1 4HS      -0.055700
      9 H1          -0.0680     2.1390     0.0160 h4         1 4HS       0.214000
     10 H2          -2.5010    -2.1490     0.0170 ha         1 4HS       0.213000
     11 H4           0.0070    -2.2420     0.0410 ha         1 4HS       0.201000
     12 H3          -2.3970     2.0050    -0.0060 hn         1 4HS       0.329500
@<TRIPOS>BOND
     1     1     6 1   
     2     1     7 2   
     3     1     9 1   
     4     2     3 1   
     5     2     5 2   
     6     2     6 1   
     7     3     4 2   
     8     3    10 1   
     9     4     7 1   
    10     4    11 1   
    11     6    12 1   
    12     7     8 1   
@<TRIPOS>SUBSTRUCTURE
     1 4HS         1 TEMP              0 ****  ****    0 ROOT
