@<TRIPOS>MOLECULE
4HS
   12    12     1     0     0
SMALL
bcc


@<TRIPOS>ATOM
      1 C1          -0.5160     1.1310     0.0170 cc         1 4HS       0.053600
      2 C2          -2.6590    -0.0190     0.0030 c          1 4HS       0.695700
      3 C3          -1.9050    -1.2480     0.0170 cc         1 4HS      -0.264200
      4 C4          -0.5470    -1.2550     0.0300 cd         1 4HS      -0.019000
      5 O           -3.8810     0.0710    -0.0080 o          1 4HS      -0.621500
      6 N           -1.8660     1.1140     0.0040 ns         1 4HS      -0.430100
      7 C            0.1750    -0.0360     0.0310 cd         1 4HS      -0.165300
      8 BR           2.0530    -0.0350     0.0500 br         1 4HS      -0.055700
      9 H1          -0.0530     2.1070     0.0160 h4         1 4HS       0.164000
     10 H2          -2.4580    -2.1760     0.0170 ha         1 4HS       0.163000
     11 H4          -0.0170    -2.1990     0.0410 ha         1 4HS       0.151000
     12 H3          -2.3460     2.0050    -0.0050 hn         1 4HS       0.329500
@<TRIPOS>BOND
     1     1     6 1   
     2     1     7 2   
     3     1     9 1   
     4     2     3 1   
     5     2     5 2   
     6     2     6 1   
     7     3     4 2   
     8     3    10 1   
     9     4     7 1   
    10     4    11 1   
    11     6    12 1   
    12     7     8 1   
@<TRIPOS>SUBSTRUCTURE
     1 4HS         1 TEMP              0 ****  ****    0 ROOT
