@<TRIPOS>MOLECULE
4HU
   15    15     1     0     0
SMALL
No Charge or Current Charge


@<TRIPOS>ATOM
      1 C1          -1.8580     0.1890    -0.1060 ca         1 4HU       0.348300
      2 C2          -2.1340    -1.1760    -0.3260 ca         1 4HU      -0.124000
      3 C3          -1.0900    -2.1140    -0.2500 ca         1 4HU      -0.077000
      4 C4           0.1990    -1.6420     0.0450 ca         1 4HU      -0.138000
      5 C5           0.3890    -0.2650     0.2490 ca         1 4HU       0.413200
      6 Br           2.1270     0.4210     0.6520 br         1 4HU      -0.163200
      7 N           -0.6090     0.6420     0.1780 nb         1 4HU      -0.660000
      8 C           -2.9820     1.2340    -0.1870 c3         1 4HU       0.108300
      9 O           -3.9390     1.1000     0.8870 oh         1 4HU      -0.662000
     10 H1          -3.1480    -1.4960    -0.5490 ha         1 4HU       0.146000
     11 H2          -1.2760    -3.1730    -0.4150 ha         1 4HU       0.123000
     12 H3           1.0410    -2.3260     0.1150 ha         1 4HU       0.140000
     13 H4          -2.5390     2.2390    -0.1730 h1         1 4HU       0.045700
     14 H5          -3.4850     1.1210    -1.1560 h1         1 4HU       0.045700
     15 H6          -4.6030     1.8180     0.7760 ho         1 4HU       0.453000
@<TRIPOS>BOND
     1     1     2 ar  
     2     1     7 ar  
     3     1     8 1   
     4     2     3 ar  
     5     2    10 1   
     6     3     4 ar  
     7     3    11 1   
     8     4     5 ar  
     9     4    12 1   
    10     5     6 1   
    11     5     7 ar  
    12     8     9 1   
    13     8    13 1   
    14     8    14 1   
    15     9    15 1   
@<TRIPOS>SUBSTRUCTURE
     1 4HU         1 TEMP              0 ****  ****    0 ROOT
