@<TRIPOS>MOLECULE
4HU
   15    15     1     0     0
SMALL
abcg2


@<TRIPOS>ATOM
      1 C1          -1.8540     0.2050    -0.0360 ca         1 4HU       0.348300
      2 C2          -2.1760    -1.1430    -0.0260 ca         1 4HU      -0.124000
      3 C3          -1.1410    -2.0670    -0.0150 ca         1 4HU      -0.077000
      4 C4           0.1730    -1.6320    -0.0140 ca         1 4HU      -0.138000
      5 C5           0.3670    -0.2590    -0.0280 ca         1 4HU       0.413200
      6 BR           2.1400     0.4170    -0.0290 br         1 4HU      -0.163200
      7 N           -0.5900     0.6300    -0.0380 nb         1 4HU      -0.660000
      8 C           -2.8850     1.2960    -0.0430 c3         1 4HU       0.108300
      9 O           -4.1700     0.7440    -0.0610 oh         1 4HU      -0.662000
     10 H1          -3.2060    -1.4680    -0.0240 ha         1 4HU       0.146000
     11 H2          -1.3540    -3.1270    -0.0040 ha         1 4HU       0.123000
     12 H3           0.9990    -2.3280    -0.0030 ha         1 4HU       0.140000
     13 H4          -2.7160     1.9250     0.8400 h1         1 4HU       0.045700
     14 H5          -2.6960     1.9380    -0.9150 h1         1 4HU       0.045700
     15 H6          -4.7980     1.4420     0.1370 ho         1 4HU       0.453000
@<TRIPOS>BOND
     1     1     2 ar  
     2     1     7 ar  
     3     1     8 1   
     4     2     3 ar  
     5     2    10 1   
     6     3     4 ar  
     7     3    11 1   
     8     4     5 ar  
     9     4    12 1   
    10     5     6 1   
    11     5     7 ar  
    12     8     9 1   
    13     8    13 1   
    14     8    14 1   
    15     9    15 1   
@<TRIPOS>SUBSTRUCTURE
     1 4HU         1 TEMP              0 ****  ****    0 ROOT
