@<TRIPOS>MOLECULE
4HV
   52    54     1     0     0
SMALL
No Charge or Current Charge


@<TRIPOS>ATOM
      1 C1           7.5160     0.5550    -2.2900 c3         1 4HV       0.144900
      2 O2           6.9250     0.7370    -0.9910 os         1 4HV      -0.318100
      3 C3           5.6120     0.3880    -0.7150 ca         1 4HV       0.122100
      4 C4           4.7680    -0.1730    -1.6980 ca         1 4HV      -0.175000
      5 C5           3.4420    -0.5150    -1.3850 ca         1 4HV      -0.086000
      6 C6           2.9310    -0.3040    -0.0880 ca         1 4HV      -0.125500
      7 C7           3.7770     0.2530     0.8950 ca         1 4HV      -0.149000
      8 C8           5.1130     0.6020     0.5910 ca         1 4HV       0.110100
      9 O9           5.9600     1.1530     1.5410 os         1 4HV      -0.322100
     10 C10          5.5440     1.4070     2.8950 c3         1 4HV       0.144900
     11 C11          1.5460    -0.6570     0.2570 cc         1 4HV       0.191500
     12 C12          0.5610    -1.0270    -0.6160 cd         1 4HV      -0.128000
     13 C13         -0.5980    -1.2530     0.1650 cd         1 4HV      -0.226600
     14 C14         -0.2510    -1.0030     1.4730 cc         1 4HV       0.158900
     15 O15          1.0740    -0.6300     1.5450 os         1 4HV      -0.229000
     16 C16         -1.9420    -1.6620    -0.3030 c          1 4HV       0.647700
     17 O17         -2.2070    -1.8640    -1.4790 o          1 4HV      -0.600100
     18 N18         -2.8710    -1.7900     0.7040 ns         1 4HV      -0.503900
     19 C19         -4.3010    -2.0670     0.5090 c3         1 4HV       0.115700
     20 C21         -5.1300    -0.7580     0.5710 c3         1 4HV      -0.049100
     21 C22         -4.6510     0.2980    -0.4210 ca         1 4HV      -0.080300
     22 C23         -5.1220     0.2910    -1.7480 ca         1 4HV      -0.075000
     23 C24         -4.6620     1.2480    -2.6680 ca         1 4HV      -0.106000
     24 C25         -3.7240     2.2160    -2.2700 ca         1 4HV      -0.067000
     25 C26         -3.2460     2.2300    -0.9450 ca         1 4HV      -0.018000
     26 C27         -3.7150     1.2740    -0.0240 ca         1 4HV      -0.070000
     27 C28         -2.2800     3.2120    -0.5370 cg         1 4HV       0.326000
     28 N29         -1.4910     4.0040    -0.1970 n1         1 4HV      -0.458000
     29 C30         -4.7970    -3.1430     1.5140 c3         1 4HV       0.147600
     30 O31         -4.5110    -2.7580     2.8720 oh         1 4HV      -0.671000
     31 H19         -4.4370    -2.4900    -0.4960 h1         1 4HV       0.086700
     32 H1           8.5580     0.8970    -2.2840 h1         1 4HV       0.041033
     33 H1A          7.5080    -0.5040    -2.5780 h1         1 4HV       0.041033
     34 H1B          6.9730     1.1320    -3.0500 h1         1 4HV       0.041033
     35 H4           5.1210    -0.3520    -2.7100 ha         1 4HV       0.121000
     36 H5           2.8220    -0.9510    -2.1640 ha         1 4HV       0.119000
     37 H7           3.3810     0.4140     1.8930 ha         1 4HV       0.131000
     38 H10          6.3710     1.8430     3.4690 h1         1 4HV       0.041033
     39 H10A         4.7050     2.1140     2.9190 h1         1 4HV       0.041033
     40 H10B         5.2390     0.4770     3.3910 h1         1 4HV       0.041033
     41 H12          0.6400    -1.1220    -1.6940 ha         1 4HV       0.158000
     42 H14         -0.8090    -1.0420     2.3990 h4         1 4HV       0.054100
     43 HN18        -2.5510    -1.6420     1.6510 hn         1 4HV       0.321500
     44 H21         -6.1840    -0.9950     0.3820 hc         1 4HV       0.059700
     45 H21A        -5.0910    -0.3550     1.5900 hc         1 4HV       0.059700
     46 H23         -5.8410    -0.4610    -2.0680 ha         1 4HV       0.115000
     47 H24         -5.0290     1.2360    -3.6920 ha         1 4HV       0.121000
     48 H25         -3.3690     2.9500    -2.9910 ha         1 4HV       0.126000
     49 H27         -3.3430     1.2810     0.9990 ha         1 4HV       0.117000
     50 H30         -5.8760    -3.2960     1.3760 h1         1 4HV       0.032700
     51 H30A        -4.2980    -4.0930     1.2820 h1         1 4HV       0.032700
     52 HO31        -4.8460    -3.4780     3.4520 ho         1 4HV       0.449000
@<TRIPOS>BOND
     1     1     2 1   
     2     1    32 1   
     3     1    33 1   
     4     1    34 1   
     5     2     3 1   
     6     3     4 ar  
     7     3     8 ar  
     8     4     5 ar  
     9     4    35 1   
    10     5     6 ar  
    11     5    36 1   
    12     6     7 ar  
    13     6    11 1   
    14     7     8 ar  
    15     7    37 1   
    16     8     9 1   
    17     9    10 1   
    18    10    38 1   
    19    10    39 1   
    20    10    40 1   
    21    11    12 2   
    22    11    15 1   
    23    12    13 1   
    24    12    41 1   
    25    13    14 2   
    26    13    16 1   
    27    14    15 1   
    28    14    42 1   
    29    16    17 2   
    30    16    18 1   
    31    18    19 1   
    32    18    43 1   
    33    19    20 1   
    34    19    29 1   
    35    19    31 1   
    36    20    21 1   
    37    20    44 1   
    38    20    45 1   
    39    21    22 ar  
    40    21    26 ar  
    41    22    23 ar  
    42    22    46 1   
    43    23    24 ar  
    44    23    47 1   
    45    24    25 ar  
    46    24    48 1   
    47    25    26 ar  
    48    25    27 1   
    49    26    49 1   
    50    27    28 3   
    51    29    30 1   
    52    29    50 1   
    53    29    51 1   
    54    30    52 1   
@<TRIPOS>SUBSTRUCTURE
     1 4HV         1 TEMP              0 ****  ****    0 ROOT
