@<TRIPOS>MOLECULE
4HV
   52    54     1     0     0
SMALL
abcg2


@<TRIPOS>ATOM
      1 C1           7.6120     0.1080    -2.0190 c3         1 4HV       0.144900
      2 O2           6.9620     0.4980    -0.8260 os         1 4HV      -0.318100
      3 C3           5.6510     0.2340    -0.7020 ca         1 4HV       0.122100
      4 C4           4.8710    -0.4060    -1.6510 ca         1 4HV      -0.175000
      5 C5           3.5180    -0.6310    -1.4250 ca         1 4HV      -0.086000
      6 C6           2.9220    -0.2210    -0.2410 ca         1 4HV      -0.125500
      7 C7           3.7070     0.4290     0.7230 ca         1 4HV      -0.149000
      8 C8           5.0530     0.6580     0.5040 ca         1 4HV       0.110100
      9 O9           5.8760     1.2710     1.3720 os         1 4HV      -0.322100
     10 C10          5.3410     1.7160     2.6020 c3         1 4HV       0.144900
     11 C11          1.5090    -0.4730    -0.0110 cc         1 4HV       0.191500
     12 C12          0.5500    -1.1130    -0.7320 cd         1 4HV      -0.128000
     13 C13         -0.6460    -1.0510     0.0430 cd         1 4HV      -0.226600
     14 C14         -0.3270    -0.3610     1.1690 cc         1 4HV       0.158900
     15 O15          0.9660    -0.0110     1.1420 os         1 4HV      -0.229000
     16 C16         -1.9580    -1.5850    -0.3750 c          1 4HV       0.647700
     17 O17         -2.1890    -1.8170    -1.5530 o          1 4HV      -0.600100
     18 N18         -2.8420    -1.7970     0.6180 ns         1 4HV      -0.503900
     19 C19         -4.2330    -2.1310     0.4040 c3         1 4HV       0.115700
     20 C21         -5.1310    -0.8980     0.6200 c3         1 4HV      -0.049100
     21 C22         -4.6920     0.2510    -0.2360 ca         1 4HV      -0.080300
     22 C23         -5.1140     0.3640    -1.5600 ca         1 4HV      -0.075000
     23 C24         -4.6550     1.3880    -2.3770 ca         1 4HV      -0.106000
     24 C25         -3.7520     2.3180    -1.8910 ca         1 4HV      -0.067000
     25 C26         -3.3240     2.2120    -0.5690 ca         1 4HV      -0.018000
     26 C27         -3.7960     1.1900     0.2550 ca         1 4HV      -0.070000
     27 C28         -2.3860     3.1530    -0.0480 cg         1 4HV       0.326000
     28 N29         -1.6260     3.9080     0.3760 n1         1 4HV      -0.458000
     29 C30         -4.6400    -3.2990     1.2860 c3         1 4HV       0.147600
     30 O31         -4.4530    -2.9340     2.6340 oh         1 4HV      -0.671000
     31 H19         -4.3360    -2.4590    -0.6310 h1         1 4HV       0.086700
     32 H1           8.6520     0.4060    -1.9150 h1         1 4HV       0.041033
     33 H1A          7.5700    -0.9740    -2.1720 h1         1 4HV       0.041033
     34 H1B          7.1880     0.6050    -2.8950 h1         1 4HV       0.041033
     35 H4           5.3020    -0.7440    -2.5840 ha         1 4HV       0.121000
     36 H5           2.9410    -1.1330    -2.1900 ha         1 4HV       0.119000
     37 H7           3.2530     0.7550     1.6480 ha         1 4HV       0.131000
     38 H10          6.1600     2.1800     3.1450 h1         1 4HV       0.041033
     39 H10A         4.5480     2.4550     2.4600 h1         1 4HV       0.041033
     40 H10B         4.9480     0.8890     3.1990 h1         1 4HV       0.041033
     41 H12          0.6710    -1.5910    -1.6900 ha         1 4HV       0.158000
     42 H14         -0.8940    -0.0370     2.0270 h4         1 4HV       0.054100
     43 HN18        -2.5530    -1.6440     1.5710 hn         1 4HV       0.321500
     44 H21         -6.1610    -1.1770     0.3830 hc         1 4HV       0.059700
     45 H21A        -5.1110    -0.6090     1.6730 hc         1 4HV       0.059700
     46 H23         -5.8120    -0.3620    -1.9600 ha         1 4HV       0.115000
     47 H24         -5.0000     1.4600    -3.3990 ha         1 4HV       0.121000
     48 H25         -3.3820     3.1140    -2.5230 ha         1 4HV       0.126000
     49 H27         -3.4610     1.1330     1.2820 ha         1 4HV       0.117000
     50 H30         -5.6860    -3.5500     1.0700 h1         1 4HV       0.032700
     51 H30A        -4.0320    -4.1700     1.0130 h1         1 4HV       0.032700
     52 HO31        -4.6650    -3.6900     3.1880 ho         1 4HV       0.449000
@<TRIPOS>BOND
     1     1     2 1   
     2     1    32 1   
     3     1    33 1   
     4     1    34 1   
     5     2     3 1   
     6     3     4 ar  
     7     3     8 ar  
     8     4     5 ar  
     9     4    35 1   
    10     5     6 ar  
    11     5    36 1   
    12     6     7 ar  
    13     6    11 1   
    14     7     8 ar  
    15     7    37 1   
    16     8     9 1   
    17     9    10 1   
    18    10    38 1   
    19    10    39 1   
    20    10    40 1   
    21    11    12 2   
    22    11    15 1   
    23    12    13 1   
    24    12    41 1   
    25    13    14 2   
    26    13    16 1   
    27    14    15 1   
    28    14    42 1   
    29    16    17 2   
    30    16    18 1   
    31    18    19 1   
    32    18    43 1   
    33    19    20 1   
    34    19    29 1   
    35    19    31 1   
    36    20    21 1   
    37    20    44 1   
    38    20    45 1   
    39    21    22 ar  
    40    21    26 ar  
    41    22    23 ar  
    42    22    46 1   
    43    23    24 ar  
    44    23    47 1   
    45    24    25 ar  
    46    24    48 1   
    47    25    26 ar  
    48    25    27 1   
    49    26    49 1   
    50    27    28 3   
    51    29    30 1   
    52    29    50 1   
    53    29    51 1   
    54    30    52 1   
@<TRIPOS>SUBSTRUCTURE
     1 4HV         1 TEMP              0 ****  ****    0 ROOT
