@<TRIPOS>MOLECULE
4HW
   42    45     1     0     0
SMALL
No Charge or Current Charge


@<TRIPOS>ATOM
      1 C1           7.2750     0.1300     0.5740 ca         1 4HW      -0.084500
      2 C2           5.8780     0.2670     0.4820 ca         1 4HW      -0.146000
      3 C3           5.0680    -0.8460     0.1790 ca         1 4HW       0.304000
      4 N1           1.0180     2.2620    -0.8560 nb         1 4HW      -0.297000
      5 C7           1.4140     0.0720    -0.0100 ca         1 4HW      -0.289000
      6 C6           2.7820     0.2670    -0.2070 ca         1 4HW       0.400900
      7 N2           3.2620     1.4080    -0.7230 nb         1 4HW      -0.259000
      8 C5           7.0710    -2.2430     0.0830 ca         1 4HW      -0.084500
      9 C4           5.6750    -2.1010    -0.0060 ca         1 4HW      -0.146000
     10 C8           0.5230     1.1120    -0.3450 ca         1 4HW       0.284500
     11 C9           2.3530     2.3530    -1.0200 ca         1 4HW       0.193900
     12 C10         -1.7180     1.7710     0.4290 cc         1 4HW       0.769400
     13 N4          -2.9080     1.2700     0.4490 nd         1 4HW      -0.818000
     14 C11         -2.6960     0.0710    -0.1720 cd         1 4HW       0.851900
     15 N6          -3.6780    -0.8180    -0.3170 nu         1 4HW      -0.932900
     16 C12         -5.0610    -0.8140    -0.1440 ca         1 4HW       0.327000
     17 C17         -5.8290     0.3680    -0.1050 ca         1 4HW      -0.159000
     18 C16         -7.2250     0.3090     0.0550 ca         1 4HW      -0.081000
     19 C15         -7.8660    -0.9340     0.1690 ca         1 4HW      -0.146000
     20 C14         -7.1130    -2.1180     0.1170 ca         1 4HW      -0.081000
     21 C13         -5.7180    -2.0540    -0.0440 ca         1 4HW      -0.159000
     22 N5          -1.4740    -0.2500    -0.5440 nc         1 4HW      -0.630800
     23 N3          -0.8420     0.8860    -0.1400 na         1 4HW      -0.136200
     24 N            3.6740    -0.7570     0.0930 nu         1 4HW      -0.928900
     25 C            7.8710    -1.1250     0.3700 ca         1 4HW      -0.134000
     26 H1           7.8920     0.9950     0.8080 ha         1 4HW       0.113500
     27 H2           5.4330     1.2390     0.6670 ha         1 4HW       0.128500
     28 H3           1.0420    -0.8620     0.3980 ha         1 4HW       0.161000
     29 H4           7.5310    -3.2170    -0.0690 ha         1 4HW       0.113500
     30 H5           5.0640    -2.9720    -0.2300 ha         1 4HW       0.128500
     31 H6           2.7340     3.2850    -1.4360 h5         1 4HW       0.049100
     32 H7          -2.2560     3.5470     1.0840 hn         1 4HW       0.520500
     33 H8          -0.6250     3.4280     0.5740 hn         1 4HW       0.520500
     34 H9          -3.2750    -1.7060    -0.5860 hn         1 4HW       0.507000
     35 H10         -5.3580     1.3380    -0.2140 ha         1 4HW       0.127000
     36 H11         -7.8080     1.2270     0.0840 ha         1 4HW       0.110000
     37 H12         -8.9470    -0.9810     0.2920 ha         1 4HW       0.113000
     38 H13         -7.6090    -3.0830     0.2000 ha         1 4HW       0.110000
     39 H14         -5.1450    -2.9770    -0.0830 ha         1 4HW       0.127000
     40 H15          3.2070    -1.6560     0.2080 hn         1 4HW       0.500000
     41 H16          8.9520    -1.2320     0.4420 ha         1 4HW       0.116000
     42 N7          -1.4400     2.9610     0.9530 nv         1 4HW      -1.066900
@<TRIPOS>BOND
     1     1     2 ar  
     2     1    25 ar  
     3     1    26 1   
     4     2     3 ar  
     5     2    27 1   
     6     3     9 ar  
     7     3    24 1   
     8     4    10 ar  
     9     4    11 ar  
    10     5     6 ar  
    11     5    10 ar  
    12     5    28 1   
    13     6     7 ar  
    14     6    24 1   
    15     7    11 ar  
    16     8     9 ar  
    17     8    25 ar  
    18     8    29 1   
    19     9    30 1   
    20    10    23 1   
    21    11    31 1   
    22    12    13 2   
    23    12    23 1   
    24    12    42 1   
    25    13    14 1   
    26    14    15 1   
    27    14    22 2   
    28    15    16 1   
    29    15    34 1   
    30    16    17 ar  
    31    16    21 ar  
    32    17    18 ar  
    33    17    35 1   
    34    18    19 ar  
    35    18    36 1   
    36    19    20 ar  
    37    19    37 1   
    38    20    21 ar  
    39    20    38 1   
    40    21    39 1   
    41    22    23 1   
    42    24    40 1   
    43    25    41 1   
    44    32    42 1   
    45    33    42 1   
@<TRIPOS>SUBSTRUCTURE
     1 4HW         1 TEMP              0 ****  ****    0 ROOT
