@<TRIPOS>MOLECULE
4HW
   42    45     1     0     0
SMALL
abcg2


@<TRIPOS>ATOM
      1 C1           7.2440     0.0380     0.2320 ca         1 4HW      -0.084500
      2 C2           5.8700     0.2330     0.2910 ca         1 4HW      -0.146000
      3 C3           5.0080    -0.8410     0.0600 ca         1 4HW       0.304000
      4 N1           1.0380     2.3810     0.1330 nb         1 4HW      -0.297000
      5 C7           1.3850     0.0230     0.1460 ca         1 4HW      -0.289000
      6 C6           2.7640     0.2770     0.1290 ca         1 4HW       0.400900
      7 N2           3.2420     1.5240     0.1220 nb         1 4HW      -0.259000
      8 C5           6.9280    -2.2760    -0.2730 ca         1 4HW      -0.084500
      9 C4           5.5570    -2.0980    -0.2210 ca         1 4HW      -0.146000
     10 C8           0.5640     1.1310     0.1460 ca         1 4HW       0.284500
     11 C9           2.3510     2.4960     0.1230 ca         1 4HW       0.193900
     12 C10         -1.7910     1.9440     0.1040 cc         1 4HW       0.769400
     13 N4          -2.9690     1.3550     0.0750 nd         1 4HW      -0.818000
     14 C11         -2.6630     0.0370     0.1100 cd         1 4HW       0.851900
     15 N6          -3.5860    -0.9630     0.1170 nu         1 4HW      -0.932900
     16 C12         -4.9690    -0.9030     0.0290 ca         1 4HW       0.327000
     17 C17         -5.6890     0.2410    -0.3280 ca         1 4HW      -0.159000
     18 C16         -7.0750     0.1880    -0.4050 ca         1 4HW      -0.081000
     19 C15         -7.7710    -0.9830    -0.1420 ca         1 4HW      -0.146000
     20 C14         -7.0530    -2.1210     0.2070 ca         1 4HW      -0.081000
     21 C13         -5.6730    -2.0840     0.2930 ca         1 4HW      -0.159000
     22 N5          -1.3860    -0.2500     0.1550 nc         1 4HW      -0.630800
     23 N3          -0.8090     0.9940     0.1550 na         1 4HW      -0.136200
     24 N            3.6150    -0.7770     0.1110 nu         1 4HW      -0.928900
     25 C            7.7860    -1.2070    -0.0490 ca         1 4HW      -0.134000
     26 H1           7.8960     0.8820     0.4140 ha         1 4HW       0.113500
     27 H2           5.4780     1.2120     0.5130 ha         1 4HW       0.128500
     28 H3           0.9900    -0.9820     0.1500 ha         1 4HW       0.161000
     29 H4           7.3240    -3.2590    -0.4950 ha         1 4HW       0.113500
     30 H5           4.9010    -2.9410    -0.4030 ha         1 4HW       0.128500
     31 H6           2.7430     3.5070     0.1150 h5         1 4HW       0.049100
     32 H7          -2.3690     3.8600    -0.0820 hn         1 4HW       0.520500
     33 H8          -0.6480     3.6110     0.0210 hn         1 4HW       0.520500
     34 H9          -3.1960    -1.8830     0.2550 hn         1 4HW       0.507000
     35 H10         -5.1760     1.1650    -0.5410 ha         1 4HW       0.127000
     36 H11         -7.6130     1.0850    -0.6840 ha         1 4HW       0.110000
     37 H12         -8.8500    -1.0110    -0.2080 ha         1 4HW       0.113000
     38 H13         -7.5700    -3.0480     0.4210 ha         1 4HW       0.110000
     39 H14         -5.1300    -2.9790     0.5730 ha         1 4HW       0.127000
     40 H15          3.1600    -1.6760     0.0610 hn         1 4HW       0.500000
     41 H16          8.8590    -1.3430    -0.0920 ha         1 4HW       0.116000
     42 N7          -1.5880     3.2600     0.1200 nv         1 4HW      -1.066900
@<TRIPOS>BOND
     1     1     2 ar  
     2     1    25 ar  
     3     1    26 1   
     4     2     3 ar  
     5     2    27 1   
     6     3     9 ar  
     7     3    24 1   
     8     4    10 ar  
     9     4    11 ar  
    10     5     6 ar  
    11     5    10 ar  
    12     5    28 1   
    13     6     7 ar  
    14     6    24 1   
    15     7    11 ar  
    16     8     9 ar  
    17     8    25 ar  
    18     8    29 1   
    19     9    30 1   
    20    10    23 1   
    21    11    31 1   
    22    12    13 2   
    23    12    23 1   
    24    12    42 1   
    25    13    14 1   
    26    14    15 1   
    27    14    22 2   
    28    15    16 1   
    29    15    34 1   
    30    16    17 ar  
    31    16    21 ar  
    32    17    18 ar  
    33    17    35 1   
    34    18    19 ar  
    35    18    36 1   
    36    19    20 ar  
    37    19    37 1   
    38    20    21 ar  
    39    20    38 1   
    40    21    39 1   
    41    22    23 1   
    42    24    40 1   
    43    25    41 1   
    44    32    42 1   
    45    33    42 1   
@<TRIPOS>SUBSTRUCTURE
     1 4HW         1 TEMP              0 ****  ****    0 ROOT
