@<TRIPOS>MOLECULE
4HX
   46    46     1     0     0
SMALL
No Charge or Current Charge


@<TRIPOS>ATOM
      1 NO           9.6270    -4.0180    -2.4740 no         1 4HX       0.855500
      2 O2           8.8360    -3.0970    -2.6320 o          1 4HX      -0.401500
      3 O3          10.8450    -3.8470    -2.4610 o          1 4HX      -0.401500
      4 N            5.3810    -4.9060     5.7790 n8         1 4HX      -0.974200
      5 CA           5.6560    -4.2380     4.4590 c3         1 4HX       0.099500
      6 C            4.3830    -3.9770     3.5480 c          1 4HX       0.606100
      7 O            3.5320    -4.8520     3.3980 o          1 4HX      -0.549100
      8 CB           6.7390    -5.0510     3.7010 c3         1 4HX      -0.077400
      9 CG           7.2530    -4.3870     2.3990 c3         1 4HX      -0.093400
     10 CD           8.3500    -5.2140     1.7000 c3         1 4HX       0.226800
     11 NE           8.7870    -4.5380     0.4670 nu         1 4HX      -0.916400
     12 CZ           9.6950    -5.0460    -0.3730 c2         1 4HX       0.838100
     13 NH1          9.1810    -4.8800    -1.5500 nu         1 4HX      -0.942700
     14 NH2         10.2350    -6.1480    -0.1550 n2         1 4HX      -0.822100
     15 N2           4.2180    -2.7020     2.9160 n          1 4HX      -0.286300
     16 O1           5.2030    -1.6650     3.1460 oh         1 4HX      -0.438100
     17 N3           0.9090    -1.2750     2.0970 n7         1 4HX      -0.819400
     18 C1           1.6840    -0.8630     0.8630 c5         1 4HX       0.069500
     19 C2           1.2390    -1.6120    -0.4540 c          1 4HX       0.605100
     20 O4           0.4120    -2.5100    -0.5100 o          1 4HX      -0.599100
     21 C3           3.1790    -1.1920     1.1870 c5         1 4HX      -0.112400
     22 C4           2.9960    -2.4480     2.0850 c5         1 4HX       0.069700
     23 C5           1.9010    -1.8890     3.0270 c5         1 4HX       0.123800
     24 HN2          6.2440    -4.9320     6.3360 hn         1 4HX       0.402500
     25 HA           6.0940    -3.2660     4.7120 h1         1 4HX       0.037700
     26 HB1          6.3350    -6.0420     3.4590 hc         1 4HX       0.065200
     27 HB2          7.5940    -5.2150     4.3680 hc         1 4HX       0.065200
     28 HG1          6.4190    -4.2500     1.7010 hc         1 4HX       0.042700
     29 HG2          7.6490    -3.3920     2.6370 hc         1 4HX       0.042700
     30 HD1          9.2010    -5.3440     2.3850 h1         1 4HX       0.060200
     31 HD2          7.9510    -6.2100     1.4640 h1         1 4HX       0.060200
     32 HNE          8.8760    -3.5290     0.5450 hn         1 4HX       0.476000
     33 HNH1         8.2320    -4.5900    -1.4080 hn         1 4HX       0.531000
     34 HNH2        10.4550    -6.4990    -1.0920 hn         1 4HX       0.431400
     35 H1'1         1.5900    -1.6160    -2.4690 hn         1 4HX       0.316500
     36 H1'2         2.5130    -0.4360    -1.5580 hn         1 4HX       0.316500
     37 HO2          5.8230    -1.7200     2.3850 ho         1 4HX       0.439000
     38 HN           0.2350    -1.9990     1.8030 hn         1 4HX       0.434000
     39 H2           1.5640     0.2120     0.6680 h1         1 4HX       0.072700
     40 HB'1         3.7960    -1.3880     0.3030 hc         1 4HX       0.055700
     41 HB'2         3.6270    -0.3420     1.7150 hc         1 4HX       0.055700
     42 HG           2.6620    -3.3300     1.5200 h1         1 4HX       0.098700
     43 HD'1         1.4510    -2.6680     3.6580 h1         1 4HX       0.071200
     44 HD'2         2.3210    -1.1220     3.6950 h1         1 4HX       0.071200
     45 HN1          4.7520    -4.3160     6.3380 hn         1 4HX       0.402500
     46 N1           1.8350    -1.1830    -1.5910 nt         1 4HX      -0.605000
@<TRIPOS>BOND
     1     1     2 1   
     2     1     3 1   
     3     1    13 1   
     4     4     5 1   
     5     4    24 1   
     6     4    45 1   
     7     5     6 1   
     8     5     8 1   
     9     5    25 1   
    10     6     7 2   
    11     6    15 1   
    12     8     9 1   
    13     8    26 1   
    14     8    27 1   
    15     9    10 1   
    16     9    28 1   
    17     9    29 1   
    18    10    11 1   
    19    10    30 1   
    20    10    31 1   
    21    11    12 1   
    22    11    32 1   
    23    12    13 1   
    24    12    14 2   
    25    13    33 1   
    26    14    34 1   
    27    15    16 1   
    28    15    22 1   
    29    16    37 1   
    30    17    18 1   
    31    17    23 1   
    32    17    38 1   
    33    18    19 1   
    34    18    21 1   
    35    18    39 1   
    36    19    20 2   
    37    19    46 1   
    38    21    22 1   
    39    21    40 1   
    40    21    41 1   
    41    22    23 1   
    42    22    42 1   
    43    23    43 1   
    44    23    44 1   
    45    35    46 1   
    46    36    46 1   
@<TRIPOS>SUBSTRUCTURE
     1 4HX         1 TEMP              0 ****  ****    0 ROOT
