@<TRIPOS>MOLECULE
4HX
   46    46     1     0     0
SMALL
abcg2


@<TRIPOS>ATOM
      1 NO          10.5600    -4.4120    -2.4990 no         1 4HX       0.855500
      2 O2          10.4380    -3.6970    -3.4680 o          1 4HX      -0.401500
      3 O3          11.5290    -5.0890    -2.2500 o          1 4HX      -0.401500
      4 N            5.4880    -4.6580     5.7620 n8         1 4HX      -0.974200
      5 CA           5.7530    -4.0180     4.4820 c3         1 4HX       0.099500
      6 C            4.4650    -4.0420     3.6620 c          1 4HX       0.606100
      7 O            3.8180    -5.0690     3.5390 o          1 4HX      -0.549100
      8 CB           6.8130    -4.8250     3.7280 c3         1 4HX      -0.077400
      9 CG           7.1770    -4.2450     2.3670 c3         1 4HX      -0.093400
     10 CD           8.3090    -5.0280     1.7200 c3         1 4HX       0.226800
     11 NE           8.6210    -4.4750     0.4200 nu         1 4HX      -0.916400
     12 CZ           9.4530    -5.1360    -0.4250 c2         1 4HX       0.838100
     13 NH1          9.5190    -4.4350    -1.6560 nu         1 4HX      -0.942700
     14 NH2          9.9880    -6.2470    -0.1410 n2         1 4HX      -0.822100
     15 N2           4.1020    -2.9090     3.0060 n          1 4HX      -0.286300
     16 O1           4.6780    -1.7160     3.3590 oh         1 4HX      -0.438100
     17 N3           0.8260    -1.6080     1.9900 n7         1 4HX      -0.819400
     18 C1           1.6990    -1.1040     0.9420 c5         1 4HX       0.069500
     19 C2           1.0280    -1.1730    -0.4170 c          1 4HX       0.605100
     20 O4           0.2180    -2.0470    -0.6880 o          1 4HX      -0.599100
     21 C3           3.0000    -1.9580     0.9620 c5         1 4HX      -0.112400
     22 C4           2.8720    -2.7880     2.2520 c5         1 4HX       0.069700
     23 C5           1.7200    -2.1120     3.0150 c5         1 4HX       0.123800
     24 HN2          6.3540    -4.6870     6.2870 hn         1 4HX       0.402500
     25 HA           6.1250    -2.9960     4.5930 h1         1 4HX       0.037700
     26 HB1          6.4630    -5.8540     3.6190 hc         1 4HX       0.065200
     27 HB2          7.7090    -4.8610     4.3560 hc         1 4HX       0.065200
     28 HG1          6.3140    -4.2590     1.6970 hc         1 4HX       0.042700
     29 HG2          7.4770    -3.1980     2.4820 hc         1 4HX       0.042700
     30 HD1          9.1870    -5.0300     2.3750 h1         1 4HX       0.060200
     31 HD2          8.0140    -6.0700     1.5880 h1         1 4HX       0.060200
     32 HNE          8.6090    -3.4680     0.3540 hn         1 4HX       0.476000
     33 HNH1         8.7800    -3.7960    -1.9200 hn         1 4HX       0.531000
     34 HNH2        10.4690    -6.6680    -0.9220 hn         1 4HX       0.431400
     35 H1'1         1.0980    -0.2500    -2.2390 hn         1 4HX       0.316500
     36 H1'2         2.0750     0.4860    -1.0300 hn         1 4HX       0.316500
     37 HO2          5.3440    -1.5190     2.6870 ho         1 4HX       0.439000
     38 HN           0.2810    -2.3760     1.6130 hn         1 4HX       0.434000
     39 H2           1.9590    -0.0660     1.1690 h1         1 4HX       0.072700
     40 HB'1         3.0800    -2.6120     0.0930 hc         1 4HX       0.055700
     41 HB'2         3.8770    -1.3120     0.9570 hc         1 4HX       0.055700
     42 HG           2.5740    -3.8020     1.9950 h1         1 4HX       0.098700
     43 HD'1         1.2010    -2.7970     3.6860 h1         1 4HX       0.071200
     44 HD'2         2.1010    -1.2800     3.6130 h1         1 4HX       0.071200
     45 HN1          4.8600    -4.0820     6.3100 hn         1 4HX       0.402500
     46 N1           1.4350    -0.2450    -1.2900 nt         1 4HX      -0.605000
@<TRIPOS>BOND
     1     1     2 1   
     2     1     3 1   
     3     1    13 1   
     4     4     5 1   
     5     4    24 1   
     6     4    45 1   
     7     5     6 1   
     8     5     8 1   
     9     5    25 1   
    10     6     7 2   
    11     6    15 1   
    12     8     9 1   
    13     8    26 1   
    14     8    27 1   
    15     9    10 1   
    16     9    28 1   
    17     9    29 1   
    18    10    11 1   
    19    10    30 1   
    20    10    31 1   
    21    11    12 1   
    22    11    32 1   
    23    12    13 1   
    24    12    14 2   
    25    13    33 1   
    26    14    34 1   
    27    15    16 1   
    28    15    22 1   
    29    16    37 1   
    30    17    18 1   
    31    17    23 1   
    32    17    38 1   
    33    18    19 1   
    34    18    21 1   
    35    18    39 1   
    36    19    20 2   
    37    19    46 1   
    38    21    22 1   
    39    21    40 1   
    40    21    41 1   
    41    22    23 1   
    42    22    42 1   
    43    23    43 1   
    44    23    44 1   
    45    35    46 1   
    46    36    46 1   
@<TRIPOS>SUBSTRUCTURE
     1 4HX         1 TEMP              0 ****  ****    0 ROOT
