@<TRIPOS>MOLECULE
4HY
   29    30     1     0     0
SMALL
No Charge or Current Charge


@<TRIPOS>ATOM
      1 C1          -0.0270    -1.6570     2.8620 ca         1 4HY       0.017700
      2 C2           0.2180     1.4300    -1.1740 ca         1 4HY       0.115100
      3 C3           1.2420    -1.1860     2.4700 ca         1 4HY      -0.062000
      4 C4           0.1630     0.1620    -1.7900 ca         1 4HY      -0.105000
      5 C5           1.3560    -0.1060     1.5800 ca         1 4HY       0.193500
      6 C6           0.0630     0.0660    -3.1870 ca         1 4HY       0.189000
      7 C7           0.1990     0.5140     1.0670 ca         1 4HY       0.088100
      8 C8           0.0210     1.2360    -3.9810 ca         1 4HY       0.122100
      9 C9          -1.0720     0.0490     1.4610 ca         1 4HY       0.193500
     10 C10          0.0800     2.4980    -3.3650 ca         1 4HY      -0.181000
     11 C11         -1.1820    -1.0320     2.3520 ca         1 4HY      -0.062000
     12 C12          0.1790     2.5920    -1.9640 ca         1 4HY      -0.079000
     13 C13         -0.1490    -2.8280     3.8310 c3         1 4HY      -0.202100
     14 C14         -0.1860    -2.2930     5.2670 c          1 4HY       0.727000
     15 I1           3.3370     0.5800     0.9930 i          1 4HY      -0.331000
     16 I2          -0.0220    -1.9100    -4.0950 i          1 4HY      -0.306000
     17 I3          -2.8910     0.9790     0.7040 i          1 4HY      -0.331000
     18 O3          -1.2680    -1.9590     5.7240 o          1 4HY      -0.715000
     19 O2           0.3150     1.5740     0.1940 os         1 4HY      -0.233200
     20 O1          -0.0760     1.1580    -5.3450 oh         1 4HY      -0.525100
     21 O4           0.8790    -2.0950     5.8310 o          1 4HY      -0.715000
     22 HC31         2.1420    -1.6550     2.8570 ha         1 4HY       0.135000
     23 HC41         0.1980    -0.7510    -1.2050 ha         1 4HY       0.148000
     24 H101         0.0500     3.4070    -3.9610 ha         1 4HY       0.109000
     25 H111        -2.1680    -1.3800     2.6490 ha         1 4HY       0.135000
     26 H121         0.2250     3.5680    -1.4870 ha         1 4HY       0.132000
     27 H131         0.7340    -3.4620     3.6880 hc         1 4HY       0.040700
     28 H132        -1.0860    -3.3470     3.5980 hc         1 4HY       0.040700
     29 HO11        -0.0910     2.0690    -5.7100 ho         1 4HY       0.461000
@<TRIPOS>BOND
     1     1     3 ar  
     2     1    11 ar  
     3     1    13 1   
     4     2     4 ar  
     5     2    12 ar  
     6     2    19 1   
     7     3     5 ar  
     8     3    22 1   
     9     4     6 ar  
    10     4    23 1   
    11     5     7 ar  
    12     5    15 1   
    13     6     8 ar  
    14     6    16 1   
    15     7     9 ar  
    16     7    19 1   
    17     8    10 ar  
    18     8    20 1   
    19     9    11 ar  
    20     9    17 1   
    21    10    12 ar  
    22    10    24 1   
    23    11    25 1   
    24    12    26 1   
    25    13    14 1   
    26    13    27 1   
    27    13    28 1   
    28    14    18 1   
    29    14    21 1   
    30    20    29 1   
@<TRIPOS>SUBSTRUCTURE
     1 4HY         1 TEMP              0 ****  ****    0 ROOT
