@<TRIPOS>MOLECULE
4HY
   29    30     1     0     0
SMALL
abcg2


@<TRIPOS>ATOM
      1 C1           0.0870    -1.6100     2.8230 ca         1 4HY       0.017700
      2 C2           0.0870     1.4270    -1.1610 ca         1 4HY       0.115100
      3 C3           1.2840    -1.0760     2.3610 ca         1 4HY      -0.062000
      4 C4           0.0710     0.1730    -1.7500 ca         1 4HY      -0.105000
      5 C5           1.2870    -0.0110     1.4720 ca         1 4HY       0.193500
      6 C6           0.0560     0.0750    -3.1360 ca         1 4HY       0.189000
      7 C7           0.0980     0.5510     1.0260 ca         1 4HY       0.088100
      8 C8           0.0540     1.2050    -3.9460 ca         1 4HY       0.122100
      9 C9          -1.0990     0.0090     1.4880 ca         1 4HY       0.193500
     10 C10          0.0690     2.4540    -3.3250 ca         1 4HY      -0.181000
     11 C11         -1.1080    -1.0510     2.3770 ca         1 4HY      -0.062000
     12 C12          0.0850     2.5680    -1.9490 ca         1 4HY      -0.079000
     13 C13          0.0750    -2.7360     3.8050 c3         1 4HY      -0.202100
     14 C14         -0.2610    -2.3020     5.2580 c          1 4HY       0.727000
     15 I1           3.1090     0.7810     0.8000 i          1 4HY      -0.331000
     16 I2           0.0330    -1.8230    -4.0290 i          1 4HY      -0.306000
     17 I3          -2.9120     0.8390     0.8360 i          1 4HY      -0.331000
     18 O3          -0.6430    -1.1330     5.4350 o          1 4HY      -0.715000
     19 O2           0.1010     1.6250     0.1960 os         1 4HY      -0.233200
     20 O1           0.0390     1.0540    -5.2800 oh         1 4HY      -0.525100
     21 O4          -0.1260    -3.1930     6.1170 o          1 4HY      -0.715000
     22 HC31         2.2200    -1.5000     2.7010 ha         1 4HY       0.135000
     23 HC41         0.0710    -0.7260    -1.1470 ha         1 4HY       0.148000
     24 H101         0.0670     3.3530    -3.9320 ha         1 4HY       0.109000
     25 H111        -2.0480    -1.4580     2.7250 ha         1 4HY       0.135000
     26 H121         0.0960     3.5470    -1.4870 ha         1 4HY       0.132000
     27 H131         1.0380    -3.2520     3.7990 hc         1 4HY       0.040700
     28 H132        -0.6660    -3.4840     3.5050 hc         1 4HY       0.040700
     29 HO11         0.0180     1.9140    -5.7160 ho         1 4HY       0.461000
@<TRIPOS>BOND
     1     1     3 ar  
     2     1    11 ar  
     3     1    13 1   
     4     2     4 ar  
     5     2    12 ar  
     6     2    19 1   
     7     3     5 ar  
     8     3    22 1   
     9     4     6 ar  
    10     4    23 1   
    11     5     7 ar  
    12     5    15 1   
    13     6     8 ar  
    14     6    16 1   
    15     7     9 ar  
    16     7    19 1   
    17     8    10 ar  
    18     8    20 1   
    19     9    11 ar  
    20     9    17 1   
    21    10    12 ar  
    22    10    24 1   
    23    11    25 1   
    24    12    26 1   
    25    13    14 1   
    26    13    27 1   
    27    13    28 1   
    28    14    18 1   
    29    14    21 1   
    30    20    29 1   
@<TRIPOS>SUBSTRUCTURE
     1 4HY         1 TEMP              0 ****  ****    0 ROOT
