@<TRIPOS>MOLECULE
4HZ
   41    43     1     0     0
SMALL
bcc


@<TRIPOS>ATOM
      1 C1          -2.4050    -0.5530    -0.6890 c3         1 4HZ       0.168500
      2 N2           2.3500    -1.6580     0.4660 nb         1 4HZ      -0.730000
      3 C3          -6.0310     0.3960    -0.1900 c3         1 4HZ       0.035000
      4 C4          -6.4070     0.7080     1.2430 c3         1 4HZ       0.641900
      5 C5          -0.3620    -1.6960     0.0210 ca         1 4HZ       0.713200
      6 C6           0.3120    -2.8450     0.4860 ca         1 4HZ      -0.188700
      7 C8           1.6570    -0.6180     0.0290 ca         1 4HZ       0.798800
      8 C9           2.3860     0.6110    -0.2390 cc         1 4HZ      -0.215000
      9 C10          1.8420     1.7780    -0.7190 cd         1 4HZ      -0.040100
     10 C15          6.2070     2.1360    -0.0840 ca         1 4HZ       0.433200
     11 F3          -0.3850    -3.9700     0.7150 f          1 4HZ      -0.132900
     12 C7           1.6540    -2.7790     0.6940 ca         1 4HZ       0.443200
     13 N3           0.3430    -0.5940    -0.1970 nb         1 4HZ      -0.812000
     14 N1          -1.6830    -1.6960    -0.1900 nu         1 4HZ      -0.866900
     15 C2          -3.8770    -0.7510    -0.3440 c          1 4HZ       0.662100
     16 N           -4.6080     0.3780    -0.3730 ns         1 4HZ      -0.570900
     17 F2          -5.9580     1.9120     1.6250 f          1 4HZ      -0.232967
     18 F1          -7.7370     0.7130     1.3970 f          1 4HZ      -0.232967
     19 F           -5.9070    -0.1810     2.1080 f          1 4HZ      -0.232967
     20 O           -4.3430    -1.8520    -0.1130 o          1 4HZ      -0.579100
     21 C           -2.2460    -0.3730    -2.2020 c3         1 4HZ      -0.112100
     22 C12          3.7870     0.8620    -0.0790 ca         1 4HZ      -0.158100
     23 C13          4.8970     0.1410     0.3520 ca         1 4HZ      -0.022000
     24 C14          6.1090     0.8060     0.3420 ca         1 4HZ      -0.127900
     25 CL           7.5480    -0.0060     0.8610 cl         1 4HZ      -0.100400
     26 N5           5.1640     2.8350    -0.4950 nb         1 4HZ      -0.673000
     27 C11          4.0070     2.1980    -0.4820 ca         1 4HZ       0.419800
     28 N4           2.8050     2.7200    -0.8630 na         1 4HZ      -0.267100
     29 H1          -2.0360     0.3440    -0.1860 h1         1 4HZ       0.084700
     30 H2          -6.4600    -0.5660    -0.4670 h1         1 4HZ       0.093200
     31 H3          -6.4710     1.1550    -0.8370 h1         1 4HZ       0.093200
     32 H4           0.8160     1.9930    -0.9690 h4         1 4HZ       0.177000
     33 H5           7.1690     2.6350    -0.0860 h4         1 4HZ       0.034100
     34 H6           2.1980    -3.6470     1.0520 h4         1 4HZ       0.038100
     35 H7          -2.2100    -2.5460    -0.0560 hn         1 4HZ       0.479800
     36 H8          -4.1500     1.2540    -0.5690 hn         1 4HZ       0.329500
     37 H9          -2.6120    -1.2500    -2.7360 hc         1 4HZ       0.053033
     38 H10         -2.7950     0.5000    -2.5530 hc         1 4HZ       0.053033
     39 H11         -1.1960    -0.2290    -2.4470 hc         1 4HZ       0.053033
     40 H12          4.8120    -0.8860     0.6750 ha         1 4HZ       0.176000
     41 H13          2.6580     3.6560    -1.2050 hn         1 4HZ       0.315700
@<TRIPOS>BOND
     1     1    14 1   
     2     1    15 1   
     3     1    21 1   
     4     1    29 1   
     5     2     7 ar  
     6     2    12 ar  
     7     3     4 1   
     8     3    16 1   
     9     3    30 1   
    10     3    31 1   
    11     4    17 1   
    12     4    18 1   
    13     4    19 1   
    14     5     6 ar  
    15     5    13 ar  
    16     5    14 1   
    17     6    11 1   
    18     6    12 ar  
    19     7     8 1   
    20     7    13 ar  
    21     8     9 2   
    22     8    22 1   
    23     9    28 1   
    24     9    32 1   
    25    10    24 ar  
    26    10    26 ar  
    27    10    33 1   
    28    12    34 1   
    29    14    35 1   
    30    15    16 1   
    31    15    20 2   
    32    16    36 1   
    33    21    37 1   
    34    21    38 1   
    35    21    39 1   
    36    22    23 ar  
    37    22    27 ar  
    38    23    24 ar  
    39    23    40 1   
    40    24    25 1   
    41    26    27 ar  
    42    27    28 1   
    43    28    41 1   
@<TRIPOS>SUBSTRUCTURE
     1 4HZ         1 TEMP              0 ****  ****    0 ROOT
