@<TRIPOS>MOLECULE
4HZ
   41    43     1     0     0
SMALL
No Charge or Current Charge


@<TRIPOS>ATOM
      1 C1          -2.4940    -0.5830    -1.0130 c3         1 4HZ       0.168500
      2 N2           2.3260    -1.6000     0.5970 nb         1 4HZ      -0.204000
      3 C3          -6.0450     0.7060     0.0420 c3         1 4HZ       0.035000
      4 C4          -6.3330     0.4420     1.5410 c3         1 4HZ       0.278000
      5 C5          -0.3680    -1.6500     0.0370 ca         1 4HZ       0.384900
      6 C6           0.2410    -2.7820     0.6120 ca         1 4HZ      -0.023000
      7 C8           1.6650    -0.5570     0.0460 ca         1 4HZ       0.272800
      8 C9           2.4370     0.6580    -0.2670 cc         1 4HZ      -0.215000
      9 C10          1.8460     1.7710    -0.8520 cd         1 4HZ      -0.090100
     10 C15          6.2770     2.1600    -0.0070 ca         1 4HZ       0.367900
     11 F3          -0.4640    -3.9040     0.9000 f          1 4HZ      -0.168000
     12 C7           1.6150    -2.7100     0.8790 ca         1 4HZ       0.114900
     13 N3           0.3420    -0.5430    -0.2430 nb         1 4HZ      -0.286000
     14 N1          -1.7320    -1.6290    -0.2640 nu         1 4HZ      -0.922100
     15 C2          -4.0390    -0.6440    -0.7250 c          1 4HZ       0.595100
     16 N           -4.6240     0.5490    -0.3380 ns         1 4HZ      -0.503900
     17 F2          -5.6060     1.2710     2.3260 f          1 4HZ      -0.111667
     18 F1          -7.6400     0.6500     1.8180 f          1 4HZ      -0.111667
     19 F           -6.0320    -0.8300     1.8870 f          1 4HZ      -0.111667
     20 O           -4.6880    -1.6810    -0.8060 o          1 4HZ      -0.579100
     21 C           -2.2060    -0.7180    -2.5240 c3         1 4HZ      -0.112100
     22 C12          3.8320     0.9740    -0.0800 ca         1 4HZ      -0.092800
     23 C13          4.8890     0.2240     0.4640 ca         1 4HZ      -0.004000
     24 C14          6.1490     0.8450     0.4970 ca         1 4HZ       0.029000
     25 Cl           7.5420    -0.0090     1.1590 cl         1 4HZ      -0.192000
     26 N5           5.2360     2.8660    -0.5290 nb         1 4HZ      -0.673000
     27 C11          4.0350     2.2560    -0.5530 ca         1 4HZ       0.354500
     28 N4           2.8410     2.7630    -1.0280 na         1 4HZ      -0.317400
     29 H1          -2.1600     0.4120    -0.6860 h1         1 4HZ       0.084700
     30 H2          -6.6610     0.0250    -0.5610 h1         1 4HZ       0.093200
     31 H3          -6.3620     1.7290    -0.2000 h1         1 4HZ       0.093200
     32 H4           0.8110     1.9330    -1.1520 h4         1 4HZ       0.227000
     33 H5           7.2420     2.6640     0.0070 h4         1 4HZ       0.034100
     34 H6           2.1550    -3.5450     1.3230 h4         1 4HZ       0.038100
     35 H7          -2.2370    -2.4910    -0.0320 hn         1 4HZ       0.535000
     36 H8          -4.0170     1.3600    -0.2810 hn         1 4HZ       0.329500
     37 H9          -2.5270    -1.6990    -2.8960 hc         1 4HZ       0.053033
     38 H10         -2.7440     0.0550    -3.0860 hc         1 4HZ       0.053033
     39 H11         -1.1360    -0.6040    -2.7310 hc         1 4HZ       0.053033
     40 H12          4.7590    -0.7850     0.8440 ha         1 4HZ       0.158000
     41 H13          2.7180     3.6840    -1.4290 hn         1 4HZ       0.366000
@<TRIPOS>BOND
     1     1    14 1   
     2     1    15 1   
     3     1    21 1   
     4     1    29 1   
     5     2     7 ar  
     6     2    12 ar  
     7     3     4 1   
     8     3    16 1   
     9     3    30 1   
    10     3    31 1   
    11     4    17 1   
    12     4    18 1   
    13     4    19 1   
    14     5     6 ar  
    15     5    13 ar  
    16     5    14 1   
    17     6    11 1   
    18     6    12 ar  
    19     7     8 1   
    20     7    13 ar  
    21     8     9 2   
    22     8    22 1   
    23     9    28 1   
    24     9    32 1   
    25    10    24 ar  
    26    10    26 ar  
    27    10    33 1   
    28    12    34 1   
    29    14    35 1   
    30    15    16 1   
    31    15    20 2   
    32    16    36 1   
    33    21    37 1   
    34    21    38 1   
    35    21    39 1   
    36    22    23 ar  
    37    22    27 ar  
    38    23    24 ar  
    39    23    40 1   
    40    24    25 1   
    41    26    27 ar  
    42    27    28 1   
    43    28    41 1   
@<TRIPOS>SUBSTRUCTURE
     1 4HZ         1 TEMP              0 ****  ****    0 ROOT
