@<TRIPOS>MOLECULE
4I0
   76    81     1     0     0
SMALL
abcg2


@<TRIPOS>ATOM
      1 F1           0.4680   -14.1320     4.3330 f          1 4I0      -0.254000
      2 C1          -0.3610   -14.0210     5.4390 c5         1 4I0       0.178300
      3 C2          -1.6030   -14.8820     5.3190 c5         1 4I0      -0.125400
      4 C3          -2.5580   -14.2200     6.3020 c5         1 4I0       0.105000
      5 N1          -2.1830   -12.8090     6.2350 n          1 4I0      -0.430800
      6 C4          -0.9030   -12.6040     5.5780 c5         1 4I0       0.073000
      7 C5          -2.8560   -11.7810     6.7840 c          1 4I0       0.606100
      8 C6          -4.1390   -12.1560     7.5110 c3         1 4I0       0.092800
      9 N2          -4.8840   -11.0070     7.9550 n3         1 4I0      -0.691600
     10 C7          -5.6060   -10.3710     6.8690 c6         1 4I0       0.161800
     11 C8          -6.3200    -9.1240     7.3490 c6         1 4I0       0.183800
     12 N3          -7.2200    -9.4380     8.4400 nh         1 4I0      -0.765400
     13 C9          -6.5150   -10.1100     9.5270 c6         1 4I0       0.183800
     14 C10         -5.8090   -11.3500     9.0180 c6         1 4I0       0.161800
     15 C11         -8.1050    -8.4280     8.8300 cc         1 4I0       0.246000
     16 C12         -9.1510    -8.7300     9.7570 cc         1 4I0      -0.113000
     17 C13        -10.0500    -7.7840    10.1460 cd         1 4I0      -0.066000
     18 C14         -9.9590    -6.4810     9.6180 cd         1 4I0      -0.081000
     19 N4          -8.9600    -6.2310     8.7130 na         1 4I0       0.170100
     20 C15         -8.0360    -7.1590     8.3280 cd         1 4I0      -0.169000
     21 C16         -9.0650    -4.9030     8.3560 cd         1 4I0      -0.002100
     22 N5         -10.6880    -5.3950     9.8390 nc         1 4I0      -0.291600
     23 C17        -10.1390    -4.4210     9.0750 cc         1 4I0       0.073400
     24 C18        -10.6900    -3.0360     9.0410 c3         1 4I0      -0.000200
     25 C19        -11.9960    -2.9380     8.2540 c3         1 4I0      -0.085100
     26 N6          -8.2000    -4.3510     7.4250 nh         1 4I0      -0.689400
     27 C20         -8.7870    -3.8410     6.1960 c3         1 4I0       0.197100
     28 C21         -7.0440    -3.5880     7.8720 c5         1 4I0       0.622700
     29 S1          -6.5670    -3.9580     9.5860 ss         1 4I0      -0.229600
     30 C22         -5.3680    -5.1260     8.9940 ce         1 4I0      -0.033100
     31 C23         -5.1150    -4.9410     7.6670 cf         1 4I0       0.242800
     32 N7          -5.8560    -3.9460     7.1300 nu         1 4I0      -0.822200
     33 C24         -4.2180    -5.7460     6.8360 ca         1 4I0      -0.102800
     34 C25         -2.9590    -6.1330     7.2950 ca         1 4I0      -0.057500
     35 C26         -2.1400    -6.9340     6.5170 ca         1 4I0      -0.151000
     36 C27         -2.5940    -7.3420     5.2770 ca         1 4I0       0.208000
     37 C28         -3.8320    -6.9680     4.7880 ca         1 4I0      -0.151000
     38 C29         -4.6400    -6.1650     5.5730 ca         1 4I0      -0.057500
     39 F2          -1.8060    -8.1120     4.5180 f          1 4I0      -0.167000
     40 C30         -4.8700    -6.1340     9.8220 cg         1 4I0       0.331700
     41 N8          -4.4740    -6.9500    10.5410 n1         1 4I0      -0.470000
     42 O1          -2.4460   -10.6320     6.7120 o          1 4I0      -0.578100
     43 H1           0.2250   -14.3010     6.3170 h1         1 4I0       0.062700
     44 H3          -1.9970   -14.8090     4.3030 hc         1 4I0       0.070200
     45 H2          -1.4290   -15.9320     5.5490 hc         1 4I0       0.070200
     46 H4          -3.5980   -14.3790     6.0200 h1         1 4I0       0.047200
     47 H5          -2.4230   -14.6120     7.3150 h1         1 4I0       0.047200
     48 H6          -0.2490   -11.9600     6.1670 h1         1 4I0       0.071200
     49 H7          -1.0280   -12.1490     4.5910 h1         1 4I0       0.071200
     50 H8          -4.7470   -12.8230     6.8800 h1         1 4I0       0.047200
     51 H9          -3.8530   -12.7560     8.3820 h1         1 4I0       0.047200
     52 H10         -6.3410   -11.0620     6.4210 h1         1 4I0       0.040950
     53 H11         -4.9120   -10.0820     6.0800 h1         1 4I0       0.040950
     54 H12         -5.5710    -8.3680     7.6360 h1         1 4I0       0.051950
     55 H13         -6.8920    -8.7140     6.5150 h1         1 4I0       0.051950
     56 H14         -5.7830    -9.4340     9.9910 h1         1 4I0       0.051950
     57 H15         -7.2190   -10.4090    10.3030 h1         1 4I0       0.051950
     58 H16         -6.5640   -12.0850     8.6900 h1         1 4I0       0.040950
     59 H17         -5.2570   -11.7980     9.8460 h1         1 4I0       0.040950
     60 H18         -9.2440    -9.7360    10.1430 ha         1 4I0       0.126000
     61 H19        -10.8430    -8.0150    10.8440 ha         1 4I0       0.142000
     62 H20         -7.2970    -6.8140     7.6240 h4         1 4I0       0.154000
     63 H22         -9.9490    -2.3570     8.6130 hc         1 4I0       0.046700
     64 H21        -10.8590    -2.6980    10.0660 hc         1 4I0       0.046700
     65 H24        -12.3840    -1.9190     8.2700 hc         1 4I0       0.035700
     66 H25        -11.8510    -3.2240     7.2120 hc         1 4I0       0.035700
     67 H23        -12.7570    -3.5930     8.6770 hc         1 4I0       0.035700
     68 H27         -9.5720    -4.5140     5.8620 h1         1 4I0       0.033700
     69 H28         -9.2130    -2.8380     6.3090 h1         1 4I0       0.033700
     70 H26         -8.0360    -3.8000     5.4040 h1         1 4I0       0.033700
     71 H34         -7.2220    -2.5120     7.7810 h3         1 4I0       0.082700
     72 H35         -5.7530    -3.6640     6.1680 hn         1 4I0       0.502000
     73 H29         -2.5990    -5.7920     8.2560 ha         1 4I0       0.124500
     74 H30         -1.1610    -7.2290     6.8690 ha         1 4I0       0.138500
     75 H31         -4.1620    -7.3030     3.8130 ha         1 4I0       0.138500
     76 H32         -5.6200    -5.8890     5.2040 ha         1 4I0       0.124500
@<TRIPOS>BOND
     1     1     2 1   
     2     2     3 1   
     3     2     6 1   
     4     2    43 1   
     5     3     4 1   
     6     3    44 1   
     7     3    45 1   
     8     4     5 1   
     9     4    46 1   
    10     4    47 1   
    11     5     6 1   
    12     5     7 1   
    13     6    48 1   
    14     6    49 1   
    15     7     8 1   
    16     7    42 2   
    17     8     9 1   
    18     8    50 1   
    19     8    51 1   
    20     9    10 1   
    21     9    14 1   
    22    10    11 1   
    23    10    52 1   
    24    10    53 1   
    25    11    12 1   
    26    11    54 1   
    27    11    55 1   
    28    12    13 1   
    29    12    15 1   
    30    13    14 1   
    31    13    56 1   
    32    13    57 1   
    33    14    58 1   
    34    14    59 1   
    35    15    16 1   
    36    15    20 2   
    37    16    17 2   
    38    16    60 1   
    39    17    18 1   
    40    17    61 1   
    41    18    19 1   
    42    18    22 2   
    43    19    20 1   
    44    19    21 1   
    45    20    62 1   
    46    21    23 2   
    47    21    26 1   
    48    22    23 1   
    49    23    24 1   
    50    24    25 1   
    51    24    63 1   
    52    24    64 1   
    53    25    65 1   
    54    25    66 1   
    55    25    67 1   
    56    26    27 1   
    57    26    28 1   
    58    27    68 1   
    59    27    69 1   
    60    27    70 1   
    61    28    29 1   
    62    28    32 1   
    63    28    71 1   
    64    29    30 1   
    65    30    31 2   
    66    30    40 1   
    67    31    32 1   
    68    31    33 1   
    69    32    72 1   
    70    33    34 ar  
    71    33    38 ar  
    72    34    35 ar  
    73    34    73 1   
    74    35    36 ar  
    75    35    74 1   
    76    36    37 ar  
    77    36    39 1   
    78    37    38 ar  
    79    37    75 1   
    80    38    76 1   
    81    40    41 3   
@<TRIPOS>SUBSTRUCTURE
     1 4I0         1 TEMP              0 ****  ****    0 ROOT
