@<TRIPOS>MOLECULE
4I0
   76    81     1     0     0
SMALL
No Charge or Current Charge


@<TRIPOS>ATOM
      1 F1          -0.0160   -15.3710     3.8530 f          1 4I0      -0.254000
      2 C1          -0.5890   -14.9030     5.0370 c5         1 4I0       0.178300
      3 C2          -1.9330   -15.6120     5.3230 c5         1 4I0      -0.125400
      4 C3          -2.5690   -14.6730     6.3800 c5         1 4I0       0.105000
      5 N1          -2.1430   -13.3450     5.8880 n          1 4I0      -0.430800
      6 C4          -1.0310   -13.4210     4.9090 c5         1 4I0       0.073000
      7 C5          -2.6640   -12.1190     6.3580 c          1 4I0       0.606100
      8 C6          -3.8210   -12.1770     7.4130 c3         1 4I0       0.092800
      9 N2          -4.4690   -10.9020     7.8700 n3         1 4I0      -0.691600
     10 C7          -5.2260   -10.2010     6.7840 c6         1 4I0       0.161800
     11 C8          -5.8740    -8.8630     7.2650 c6         1 4I0       0.183800
     12 N3          -6.7340    -9.0460     8.4780 nh         1 4I0      -0.765400
     13 C9          -5.9980    -9.7760     9.5640 c6         1 4I0       0.183800
     14 C10         -5.3580   -11.1060     9.0540 c6         1 4I0       0.161800
     15 C11         -7.7900    -8.1930     8.7710 cc         1 4I0       0.246000
     16 C12         -8.8210    -8.6690     9.6740 cc         1 4I0      -0.113000
     17 C13         -9.8970    -7.8810    10.0250 cd         1 4I0      -0.066000
     18 C14         -9.9060    -6.5750     9.4630 cd         1 4I0      -0.081000
     19 N4          -8.9150    -6.1360     8.6300 na         1 4I0       0.170100
     20 C15         -7.8530    -6.9270     8.1930 cd         1 4I0      -0.169000
     21 C16         -9.1560    -4.8340     8.2570 cd         1 4I0      -0.002100
     22 N5         -10.8000    -5.6150     9.6430 nc         1 4I0      -0.291600
     23 C17        -10.3440    -4.5400     8.8990 cc         1 4I0       0.073400
     24 C18        -11.1040    -3.2390     8.8830 c3         1 4I0      -0.000200
     25 C19        -12.2850    -3.2450     7.8930 c3         1 4I0      -0.085100
     26 N6          -8.3290    -4.0380     7.4360 nh         1 4I0      -0.689400
     27 C20         -8.8850    -3.5930     6.1420 c3         1 4I0       0.197100
     28 C21         -7.2560    -3.2030     8.0390 c5         1 4I0       0.622700
     29 S1          -7.0540    -3.5940     9.8510 ss         1 4I0      -0.229600
     30 C22         -5.7570    -4.6920     9.3520 ce         1 4I0      -0.033100
     31 C23         -5.4170    -4.6090     8.0410 cf         1 4I0       0.242800
     32 N7          -6.0950    -3.6630     7.2890 nu         1 4I0      -0.822200
     33 C24         -4.4310    -5.4200     7.2830 ca         1 4I0      -0.102800
     34 C25         -3.1800    -5.7490     7.8520 ca         1 4I0      -0.057500
     35 C26         -2.2500    -6.5230     7.1360 ca         1 4I0      -0.151000
     36 C27         -2.5570    -6.9720     5.8450 ca         1 4I0       0.208000
     37 C28         -3.7900    -6.6510     5.2620 ca         1 4I0      -0.151000
     38 C29         -4.7230    -5.8760     5.9740 ca         1 4I0      -0.057500
     39 F2          -1.6580    -7.7070     5.1550 f          1 4I0      -0.167000
     40 C30         -5.2380    -5.6290    10.3010 cg         1 4I0       0.331700
     41 N8          -4.8040    -6.3570    11.1040 n1         1 4I0      -0.470000
     42 O1          -2.2030   -11.0620     5.9360 o          1 4I0      -0.578100
     43 H1           0.1270   -15.0420     5.8590 h1         1 4I0       0.062700
     44 H3          -2.5530   -15.6630     4.4200 hc         1 4I0       0.070200
     45 H2          -1.8030   -16.6350     5.6930 hc         1 4I0       0.070200
     46 H4          -3.6610   -14.7860     6.4100 h1         1 4I0       0.047200
     47 H5          -2.1670   -14.8620     7.3840 h1         1 4I0       0.047200
     48 H6          -0.2120   -12.7330     5.1570 h1         1 4I0       0.071200
     49 H7          -1.3880   -13.1910     3.8960 h1         1 4I0       0.071200
     50 H8          -4.5920   -12.8410     7.0010 h1         1 4I0       0.047200
     51 H9          -3.3960   -12.6960     8.2820 h1         1 4I0       0.047200
     52 H10         -6.0250   -10.8540     6.4030 h1         1 4I0       0.040950
     53 H11         -4.5680    -9.9750     5.9340 h1         1 4I0       0.040950
     54 H12         -5.0690    -8.1510     7.4930 h1         1 4I0       0.051950
     55 H13         -6.4590    -8.4450     6.4320 h1         1 4I0       0.051950
     56 H14         -5.1950    -9.1320     9.9540 h1         1 4I0       0.051950
     57 H15         -6.6510   -10.0080    10.4160 h1         1 4I0       0.051950
     58 H16         -6.1680   -11.8070     8.8010 h1         1 4I0       0.040950
     59 H17         -4.7910   -11.5580     9.8810 h1         1 4I0       0.040950
     60 H18         -8.7560    -9.6770    10.0650 ha         1 4I0       0.126000
     61 H19        -10.6790    -8.2320    10.6910 ha         1 4I0       0.142000
     62 H20         -7.1580    -6.5030     7.4890 h4         1 4I0       0.154000
     63 H22        -10.4260    -2.4170     8.6240 hc         1 4I0       0.046700
     64 H21        -11.4820    -3.0200     9.8880 hc         1 4I0       0.046700
     65 H24        -12.8030    -2.2790     7.9090 hc         1 4I0       0.035700
     66 H25        -11.9320    -3.4310     6.8720 hc         1 4I0       0.035700
     67 H23        -13.0060    -4.0280     8.1570 hc         1 4I0       0.035700
     68 H27         -9.6840    -4.2720     5.8150 h1         1 4I0       0.033700
     69 H28         -9.3050    -2.5830     6.2350 h1         1 4I0       0.033700
     70 H26         -8.1100    -3.5800     5.3660 h1         1 4I0       0.033700
     71 H34         -7.4430    -2.1230     7.9470 h3         1 4I0       0.082700
     72 H35         -6.2190    -3.8900     6.3120 hn         1 4I0       0.502000
     73 H29         -2.9130    -5.3920     8.8430 ha         1 4I0       0.124500
     74 H30         -1.2880    -6.7700     7.5790 ha         1 4I0       0.138500
     75 H31         -4.0220    -7.0030     4.2610 ha         1 4I0       0.138500
     76 H32         -5.6810    -5.6570     5.5090 ha         1 4I0       0.124500
@<TRIPOS>BOND
     1     1     2 1   
     2     2     3 1   
     3     2     6 1   
     4     2    43 1   
     5     3     4 1   
     6     3    44 1   
     7     3    45 1   
     8     4     5 1   
     9     4    46 1   
    10     4    47 1   
    11     5     6 1   
    12     5     7 1   
    13     6    48 1   
    14     6    49 1   
    15     7     8 1   
    16     7    42 2   
    17     8     9 1   
    18     8    50 1   
    19     8    51 1   
    20     9    10 1   
    21     9    14 1   
    22    10    11 1   
    23    10    52 1   
    24    10    53 1   
    25    11    12 1   
    26    11    54 1   
    27    11    55 1   
    28    12    13 1   
    29    12    15 1   
    30    13    14 1   
    31    13    56 1   
    32    13    57 1   
    33    14    58 1   
    34    14    59 1   
    35    15    16 1   
    36    15    20 2   
    37    16    17 2   
    38    16    60 1   
    39    17    18 1   
    40    17    61 1   
    41    18    19 1   
    42    18    22 2   
    43    19    20 1   
    44    19    21 1   
    45    20    62 1   
    46    21    23 2   
    47    21    26 1   
    48    22    23 1   
    49    23    24 1   
    50    24    25 1   
    51    24    63 1   
    52    24    64 1   
    53    25    65 1   
    54    25    66 1   
    55    25    67 1   
    56    26    27 1   
    57    26    28 1   
    58    27    68 1   
    59    27    69 1   
    60    27    70 1   
    61    28    29 1   
    62    28    32 1   
    63    28    71 1   
    64    29    30 1   
    65    30    31 2   
    66    30    40 1   
    67    31    32 1   
    68    31    33 1   
    69    32    72 1   
    70    33    34 ar  
    71    33    38 ar  
    72    34    35 ar  
    73    34    73 1   
    74    35    36 ar  
    75    35    74 1   
    76    36    37 ar  
    77    36    39 1   
    78    37    38 ar  
    79    37    75 1   
    80    38    76 1   
    81    40    41 3   
@<TRIPOS>SUBSTRUCTURE
     1 4I0         1 TEMP              0 ****  ****    0 ROOT
