@<TRIPOS>MOLECULE
4I1
   53    52     1     0     0
SMALL
bcc


@<TRIPOS>ATOM
      1 C1           6.4370   -16.7600    -1.2460 c          1 4I1       0.926600
      2 C2           6.1140   -17.7220    -2.4060 c3         1 4I1      -0.206400
      3 C3           7.2990   -18.2590    -3.1930 c3         1 4I1      -0.057400
      4 C4           6.8780   -19.1600    -4.3470 c3         1 4I1      -0.074400
      5 C5           8.0700   -19.8120    -5.0540 c3         1 4I1      -0.051200
      6 O1           7.6300   -16.6530    -0.8910 o          1 4I1      -0.848300
      7 O2           5.4600   -16.1710    -0.7390 o          1 4I1      -0.848300
      8 C6           7.6640   -20.5410    -6.2970 c2         1 4I1      -0.143200
      9 C7           7.5000   -21.8550    -6.4470 c2         1 4I1      -0.194200
     10 C8           7.6880   -22.9200    -5.4120 c3         1 4I1      -0.036200
     11 C9           6.3460   -23.4740    -4.9250 c3         1 4I1      -0.071400
     12 C10          6.4740   -24.7100    -4.0390 c3         1 4I1      -0.069400
     13 C11          7.2400   -24.5090    -2.7340 c3         1 4I1      -0.072400
     14 C12          6.5980   -23.5020    -1.7860 c3         1 4I1      -0.078400
     15 C13          7.2890   -23.4450    -0.4280 c3         1 4I1      -0.070400
     16 C14          6.5520   -22.6010     0.6090 c3         1 4I1      -0.070400
     17 C15          6.3830   -21.1270     0.2430 c3         1 4I1      -0.070400
     18 C16          7.6820   -20.3770    -0.0360 c3         1 4I1      -0.089400
     19 C17          8.6710   -20.3580     1.1230 c3         1 4I1      -0.063400
     20 C18          9.8760   -19.4740     0.8320 c3         1 4I1      -0.094100
     21 H1           5.4070   -17.2320    -3.0840 hc         1 4I1       0.015200
     22 H2           5.5550   -18.5690    -1.9860 hc         1 4I1       0.015200
     23 H3           7.9600   -18.8180    -2.5250 hc         1 4I1       0.037700
     24 H4           7.8930   -17.4290    -3.5890 hc         1 4I1       0.037700
     25 H5           6.2960   -18.5810    -5.0710 hc         1 4I1       0.026700
     26 H6           6.2100   -19.9480    -3.9820 hc         1 4I1       0.026700
     27 H7           8.5780   -20.4780    -4.3510 hc         1 4I1       0.042200
     28 H8           8.7910   -19.0310    -5.3150 hc         1 4I1       0.042200
     29 H10          7.4490   -19.9090    -7.1550 ha         1 4I1       0.106000
     30 H11          7.1650   -22.2110    -7.4190 ha         1 4I1       0.101000
     31 H12          8.2670   -23.7440    -5.8440 hc         1 4I1       0.040700
     32 H13          8.2690   -22.5490    -4.5650 hc         1 4I1       0.040700
     33 H14          5.8030   -22.6820    -4.4010 hc         1 4I1       0.040700
     34 H15          5.7320   -23.7340    -5.7930 hc         1 4I1       0.040700
     35 H16          5.4700   -25.0780    -3.8030 hc         1 4I1       0.028200
     36 H17          6.9570   -25.5060    -4.6160 hc         1 4I1       0.028200
     37 H18          7.3080   -25.4750    -2.2250 hc         1 4I1       0.030700
     38 H19          8.2740   -24.2100    -2.9390 hc         1 4I1       0.030700
     39 H20          6.5990   -22.5080    -2.2440 hc         1 4I1       0.044200
     40 H21          5.5450   -23.7680    -1.6390 hc         1 4I1       0.044200
     41 H22          7.3840   -24.4630    -0.0380 hc         1 4I1       0.029700
     42 H23          8.3140   -23.0780    -0.5530 hc         1 4I1       0.029700
     43 H24          5.5610   -23.0350     0.7760 hc         1 4I1       0.026200
     44 H25          7.0740   -22.6800     1.5670 hc         1 4I1       0.026200
     45 H26          5.8540   -20.6250     1.0590 hc         1 4I1       0.041200
     46 H27          5.7320   -21.0380    -0.6320 hc         1 4I1       0.041200
     47 H28          8.1760   -20.7900    -0.9230 hc         1 4I1       0.062700
     48 H29          7.4380   -19.3430    -0.2960 hc         1 4I1       0.062700
     49 H30          8.1620   -20.0000     2.0250 hc         1 4I1       0.020200
     50 H31          9.0100   -21.3730     1.3510 hc         1 4I1       0.020200
     51 H32         10.5830   -19.4660     1.6630 hc         1 4I1       0.034367
     52 H33         10.4130   -19.8240    -0.0530 hc         1 4I1       0.034367
     53 H34          9.5700   -18.4440     0.6420 hc         1 4I1       0.034367
@<TRIPOS>BOND
     1     1     2 1   
     2     1     6 1   
     3     1     7 1   
     4     2     3 1   
     5     2    21 1   
     6     2    22 1   
     7     3     4 1   
     8     3    23 1   
     9     3    24 1   
    10     4     5 1   
    11     4    25 1   
    12     4    26 1   
    13     5     8 1   
    14     5    27 1   
    15     5    28 1   
    16     8     9 2   
    17     8    29 1   
    18     9    10 1   
    19     9    30 1   
    20    10    11 1   
    21    10    31 1   
    22    10    32 1   
    23    11    12 1   
    24    11    33 1   
    25    11    34 1   
    26    12    13 1   
    27    12    35 1   
    28    12    36 1   
    29    13    14 1   
    30    13    37 1   
    31    13    38 1   
    32    14    15 1   
    33    14    39 1   
    34    14    40 1   
    35    15    16 1   
    36    15    41 1   
    37    15    42 1   
    38    16    17 1   
    39    16    43 1   
    40    16    44 1   
    41    17    18 1   
    42    17    45 1   
    43    17    46 1   
    44    18    19 1   
    45    18    47 1   
    46    18    48 1   
    47    19    20 1   
    48    19    49 1   
    49    19    50 1   
    50    20    51 1   
    51    20    52 1   
    52    20    53 1   
@<TRIPOS>SUBSTRUCTURE
     1 4I1         1 TEMP              0 ****  ****    0 ROOT
