@<TRIPOS>MOLECULE
4I1
   53    52     1     0     0
SMALL
No Charge or Current Charge


@<TRIPOS>ATOM
      1 C1           4.9580   -16.7480    -1.5950 c          1 4I1       0.716000
      2 C2           5.1740   -17.3330    -3.0030 c3         1 4I1      -0.206400
      3 C3           6.3740   -18.3120    -2.9980 c3         1 4I1      -0.057400
      4 C4           6.6510   -18.9430    -4.3800 c3         1 4I1      -0.074400
      5 C5           7.8680   -19.8910    -4.3880 c3         1 4I1      -0.051200
      6 O1           4.2220   -17.3490    -0.8270 o          1 4I1      -0.743000
      7 O2           5.5610   -15.7290    -1.2950 o          1 4I1      -0.743000
      8 C6           8.1030   -20.4960    -5.7610 c2         1 4I1      -0.193200
      9 C7           8.1430   -21.8020    -6.0810 c2         1 4I1      -0.244200
     10 C8           7.9950   -22.9790    -5.1370 c3         1 4I1      -0.036200
     11 C9           6.5150   -23.3330    -4.8660 c3         1 4I1      -0.071400
     12 C10          6.3030   -24.6070    -4.0080 c3         1 4I1      -0.069400
     13 C11          6.9820   -24.6060    -2.6140 c3         1 4I1      -0.072400
     14 C12          6.5100   -23.4770    -1.6690 c3         1 4I1      -0.078400
     15 C13          7.2470   -23.4920    -0.3090 c3         1 4I1      -0.070400
     16 C14          6.7630   -22.4200     0.6990 c3         1 4I1      -0.070400
     17 C15          6.8450   -20.9480     0.2170 c3         1 4I1      -0.070400
     18 C16          8.2350   -20.4720    -0.2780 c3         1 4I1      -0.089400
     19 C17          9.3520   -20.5390     0.7880 c3         1 4I1      -0.063400
     20 C18         10.6990   -19.9940     0.2780 c3         1 4I1      -0.094100
     21 H1           5.4400   -16.5390    -3.7110 hc         1 4I1       0.015200
     22 H2           4.3040   -17.9260    -3.3100 hc         1 4I1       0.015200
     23 H3           6.1790   -19.1120    -2.2740 hc         1 4I1       0.037700
     24 H4           7.2710   -17.7820    -2.6560 hc         1 4I1       0.037700
     25 H5           6.8160   -18.1430    -5.1140 hc         1 4I1       0.026700
     26 H6           5.7630   -19.4990    -4.7070 hc         1 4I1       0.026700
     27 H7           7.7110   -20.6680    -3.6310 hc         1 4I1       0.042200
     28 H8           8.7590   -19.3330    -4.0760 hc         1 4I1       0.042200
     29 H10          8.2390   -19.7510    -6.5480 ha         1 4I1       0.156000
     30 H11          8.3140   -22.0930    -7.1200 ha         1 4I1       0.151000
     31 H12          8.5050   -23.8550    -5.5570 hc         1 4I1       0.040700
     32 H13          8.4990   -22.7610    -4.1890 hc         1 4I1       0.040700
     33 H14          6.0180   -22.4790    -4.3900 hc         1 4I1       0.040700
     34 H15          6.0090   -23.4800    -5.8280 hc         1 4I1       0.040700
     35 H16          5.2260   -24.7650    -3.8760 hc         1 4I1       0.028200
     36 H17          6.6730   -25.4730    -4.5710 hc         1 4I1       0.028200
     37 H18          6.7800   -25.5720    -2.1340 hc         1 4I1       0.030700
     38 H19          8.0700   -24.5500    -2.7370 hc         1 4I1       0.030700
     39 H20          6.6780   -22.5090    -2.1530 hc         1 4I1       0.044200
     40 H21          5.4310   -23.5710    -1.5010 hc         1 4I1       0.044200
     41 H22          7.1190   -24.4790     0.1520 hc         1 4I1       0.029700
     42 H23          8.3240   -23.3710    -0.4800 hc         1 4I1       0.029700
     43 H24          5.7210   -22.6380     0.9670 hc         1 4I1       0.026200
     44 H25          7.3390   -22.5260     1.6260 hc         1 4I1       0.026200
     45 H26          6.5220   -20.2960     1.0380 hc         1 4I1       0.041200
     46 H27          6.1140   -20.7990    -0.5870 hc         1 4I1       0.041200
     47 H28          8.5330   -21.0550    -1.1580 hc         1 4I1       0.062700
     48 H29          8.1400   -19.4330    -0.6190 hc         1 4I1       0.062700
     49 H30          9.0460   -19.9670     1.6720 hc         1 4I1       0.020200
     50 H31          9.4950   -21.5780     1.1090 hc         1 4I1       0.020200
     51 H32         11.4610   -20.0630     1.0630 hc         1 4I1       0.034367
     52 H33         11.0470   -20.5690    -0.5890 hc         1 4I1       0.034367
     53 H34         10.6060   -18.9430    -0.0190 hc         1 4I1       0.034367
@<TRIPOS>BOND
     1     1     2 1   
     2     1     6 1   
     3     1     7 1   
     4     2     3 1   
     5     2    21 1   
     6     2    22 1   
     7     3     4 1   
     8     3    23 1   
     9     3    24 1   
    10     4     5 1   
    11     4    25 1   
    12     4    26 1   
    13     5     8 1   
    14     5    27 1   
    15     5    28 1   
    16     8     9 2   
    17     8    29 1   
    18     9    10 1   
    19     9    30 1   
    20    10    11 1   
    21    10    31 1   
    22    10    32 1   
    23    11    12 1   
    24    11    33 1   
    25    11    34 1   
    26    12    13 1   
    27    12    35 1   
    28    12    36 1   
    29    13    14 1   
    30    13    37 1   
    31    13    38 1   
    32    14    15 1   
    33    14    39 1   
    34    14    40 1   
    35    15    16 1   
    36    15    41 1   
    37    15    42 1   
    38    16    17 1   
    39    16    43 1   
    40    16    44 1   
    41    17    18 1   
    42    17    45 1   
    43    17    46 1   
    44    18    19 1   
    45    18    47 1   
    46    18    48 1   
    47    19    20 1   
    48    19    49 1   
    49    19    50 1   
    50    20    51 1   
    51    20    52 1   
    52    20    53 1   
@<TRIPOS>SUBSTRUCTURE
     1 4I1         1 TEMP              0 ****  ****    0 ROOT
