@<TRIPOS>MOLECULE
4I2
   40    42     1     0     0
SMALL
No Charge or Current Charge


@<TRIPOS>ATOM
      1 N1          19.9220    38.3580     3.1610 nu         1 4I2      -0.934900
      2 N3          21.4150    39.1020    11.7670 ns         1 4I2      -0.151000
      3 C4          18.2060    38.6760    -0.1210 ca         1 4I2      -0.168300
      4 C5          18.4350    38.5930     1.2720 ca         1 4I2      -0.105000
      5 C6          19.7360    38.4470     1.7840 ca         1 4I2       0.294000
      6 C7          16.7830    38.8560    -0.6660 c3         1 4I2       0.357300
      7 C8          20.8190    38.9140     4.0060 cc         1 4I2       0.700300
      8 C10         22.4970    40.0680     5.2700 cc         1 4I2      -0.282000
      9 C13         20.5240    38.5410     9.5900 ca         1 4I2      -0.160000
     10 C15         22.5010    39.9340     9.6770 ca         1 4I2      -0.160000
     11 C17         22.1940    39.6190    12.7940 c          1 4I2       0.609100
     12 C1          20.8220    38.3660     0.8960 ca         1 4I2      -0.114000
     13 C11         21.5420    39.3250     7.5030 ca         1 4I2      -0.154500
     14 C12         20.5410    38.5970     8.1860 ca         1 4I2      -0.055500
     15 C14         21.4990    39.2060    10.3510 ca         1 4I2      -0.008000
     16 C16         22.5220    39.9920     8.2720 ca         1 4I2      -0.055500
     17 C18         21.7120    39.2360    14.1910 c3         1 4I2      -0.184100
     18 C2          20.6120    38.4560    -0.4900 ca         1 4I2      -0.088000
     19 C3          19.3120    38.6160    -0.9970 ca         1 4I2      -0.081000
     20 C9          21.5610    39.3850     6.0220 cd         1 4I2       0.399500
     21 F1          16.6400    38.3550    -1.9150 f          1 4I2      -0.111667
     22 F2          15.8580    38.2380     0.1040 f          1 4I2      -0.111667
     23 F3          16.4410    40.1620    -0.7230 f          1 4I2      -0.111667
     24 N2          20.5890    38.7280     5.2780 nd         1 4I2      -0.727000
     25 O1          23.1840    40.3220    12.6340 o          1 4I2      -0.574100
     26 S1          22.1780    39.9110     3.5660 ss         1 4I2      -0.068400
     27 H1          19.1190    38.0460     3.6980 hn         1 4I2       0.509000
     28 H2          20.6350    38.5420    12.0870 hn         1 4I2       0.149000
     29 H3          17.5990    38.6540     1.9630 ha         1 4I2       0.135000
     30 H4          23.3430    40.6530     5.5970 h4         1 4I2       0.163000
     31 H5          19.7400    37.9730    10.0870 ha         1 4I2       0.128000
     32 H6          23.2770    40.4640    10.2200 ha         1 4I2       0.128000
     33 H7          21.8300    38.2220     1.2740 ha         1 4I2       0.134000
     34 H8          19.7670    38.0680     7.6340 ha         1 4I2       0.123000
     35 H9          23.3110    40.5640     7.7930 ha         1 4I2       0.123000
     36 H10         22.3400    39.6540    14.9850 hc         1 4I2       0.065033
     37 H11         20.6640    39.5380    14.3020 hc         1 4I2       0.065033
     38 H12         21.6470    38.1440    14.2590 hc         1 4I2       0.065033
     39 H13         21.4570    38.3980    -1.1730 ha         1 4I2       0.126000
     40 H14         19.1690    38.6900    -2.0740 ha         1 4I2       0.134000
@<TRIPOS>BOND
     1     1     5 1   
     2     1     7 1   
     3     1    27 1   
     4     2    11 1   
     5     2    15 1   
     6     2    28 1   
     7     3     4 ar  
     8     3     6 1   
     9     3    19 ar  
    10     4     5 ar  
    11     4    29 1   
    12     5    12 ar  
    13     6    21 1   
    14     6    22 1   
    15     6    23 1   
    16     7    24 2   
    17     7    26 1   
    18     8    20 2   
    19     8    26 1   
    20     8    30 1   
    21     9    14 ar  
    22     9    15 ar  
    23     9    31 1   
    24    10    15 ar  
    25    10    16 ar  
    26    10    32 1   
    27    11    17 1   
    28    11    25 2   
    29    12    18 ar  
    30    12    33 1   
    31    13    14 ar  
    32    13    16 ar  
    33    13    20 1   
    34    14    34 1   
    35    16    35 1   
    36    17    36 1   
    37    17    37 1   
    38    17    38 1   
    39    18    19 ar  
    40    18    39 1   
    41    19    40 1   
    42    20    24 1   
@<TRIPOS>SUBSTRUCTURE
     1 4I2         1 TEMP              0 ****  ****    0 ROOT
