@<TRIPOS>MOLECULE
4I2
   40    42     1     0     0
SMALL
bcc


@<TRIPOS>ATOM
      1 N1          19.7750    38.1450     3.2220 nu         1 4I2      -0.741300
      2 N3          21.4140    39.1000    11.7120 ns         1 4I2      -0.477100
      3 C4          18.2820    38.7430    -0.0720 ca         1 4I2      -0.168300
      4 C5          18.4200    38.5530     1.2920 ca         1 4I2      -0.123000
      5 C6          19.6840    38.3510     1.8450 ca         1 4I2       0.155600
      6 C7          16.9300    39.0050    -0.6600 c3         1 4I2       0.721200
      7 C8          20.6540    38.7270     4.0820 cc         1 4I2       0.700300
      8 C10         22.3490    40.0120     5.2390 cc         1 4I2      -0.220400
      9 C13         20.6280    38.3990     9.5760 ca         1 4I2      -0.178000
     10 C15         22.3910    40.0240     9.6380 ca         1 4I2      -0.178000
     11 C17         22.2110    39.6500    12.6710 c          1 4I2       0.676100
     12 C1          20.8000    38.3290     1.0130 ca         1 4I2      -0.132000
     13 C11         21.5150    39.2650     7.5000 ca         1 4I2      -0.154500
     14 C12         20.6330    38.4360     8.1960 ca         1 4I2      -0.073500
     15 C14         21.5040    39.1900    10.3230 ca         1 4I2       0.084600
     16 C16         22.3840    40.0530     8.2540 ca         1 4I2      -0.073500
     17 C18         21.7660    39.3210    14.0740 c3         1 4I2      -0.184100
     18 C2          20.6490    38.5450    -0.3490 ca         1 4I2      -0.106000
     19 C3          19.3980    38.7530    -0.9040 ca         1 4I2      -0.099000
     20 C9          21.5020    39.3040     6.0350 cd         1 4I2       0.464800
     21 F1          16.7270    38.3010    -1.7800 f          1 4I2      -0.232967
     22 F2          15.9380    38.7000     0.1800 f          1 4I2      -0.232967
     23 F3          16.7800    40.2980    -0.9850 f          1 4I2      -0.232967
     24 N2          20.5530    38.5770     5.3630 nd         1 4I2      -0.727000
     25 O1          23.1830    40.3410    12.4300 o          1 4I2      -0.574100
     26 S1          21.9460    39.7770     3.5790 ss         1 4I2      -0.213300
     27 H1          18.9470    37.7900     3.6790 hn         1 4I2       0.453800
     28 H2          20.6600    38.5200    12.0480 hn         1 4I2       0.315500
     29 H3          17.5590    38.5650     1.9470 ha         1 4I2       0.153000
     30 H4          23.1830    40.6390     5.5090 h4         1 4I2       0.181000
     31 H5          19.9290    37.7430    10.0840 ha         1 4I2       0.146000
     32 H6          23.0830    40.6560    10.1690 ha         1 4I2       0.146000
     33 H7          21.7840    38.1120     1.4070 ha         1 4I2       0.152000
     34 H8          19.9390    37.8110     7.6520 ha         1 4I2       0.141000
     35 H9          23.0790    40.7230     7.7640 ha         1 4I2       0.141000
     36 H10         22.4660    39.7320    14.7960 hc         1 4I2       0.065033
     37 H11         20.7760    39.7390    14.2690 hc         1 4I2       0.065033
     38 H12         21.6970    38.2430    14.2230 hc         1 4I2       0.065033
     39 H13         21.5230    38.5280    -0.9870 ha         1 4I2       0.144000
     40 H14         19.3010    38.9110    -1.9700 ha         1 4I2       0.152000
@<TRIPOS>BOND
     1     1     5 1   
     2     1     7 1   
     3     1    27 1   
     4     2    11 1   
     5     2    15 1   
     6     2    28 1   
     7     3     4 ar  
     8     3     6 1   
     9     3    19 ar  
    10     4     5 ar  
    11     4    29 1   
    12     5    12 ar  
    13     6    21 1   
    14     6    22 1   
    15     6    23 1   
    16     7    24 2   
    17     7    26 1   
    18     8    20 2   
    19     8    26 1   
    20     8    30 1   
    21     9    14 ar  
    22     9    15 ar  
    23     9    31 1   
    24    10    15 ar  
    25    10    16 ar  
    26    10    32 1   
    27    11    17 1   
    28    11    25 2   
    29    12    18 ar  
    30    12    33 1   
    31    13    14 ar  
    32    13    16 ar  
    33    13    20 1   
    34    14    34 1   
    35    16    35 1   
    36    17    36 1   
    37    17    37 1   
    38    17    38 1   
    39    18    19 ar  
    40    18    39 1   
    41    19    40 1   
    42    20    24 1   
@<TRIPOS>SUBSTRUCTURE
     1 4I2         1 TEMP              0 ****  ****    0 ROOT
