@<TRIPOS>MOLECULE
4I4
   56    58     1     0     0
SMALL
bcc


@<TRIPOS>ATOM
      1 C14         -2.0120    -1.0580     0.0680 c3         1 4I4      -0.147400
      2 C15         -3.2260    -0.1750     0.3100 c3         1 4I4      -0.067400
      3 C16         -4.4950    -0.7950    -0.2760 c3         1 4I4      -0.028100
      4 C17         -5.6970     0.0790    -0.0520 ca         1 4I4      -0.090300
      5 C22         -6.1460     0.9480    -1.0440 ca         1 4I4      -0.122500
      6 C18         -6.3630     0.0700     1.1720 ca         1 4I4      -0.122500
      7 C21         -7.2300     1.7880    -0.8210 ca         1 4I4      -0.123500
      8 C19         -7.4470     0.9070     1.4010 ca         1 4I4      -0.123500
      9 C20         -7.8850     1.7700     0.4030 ca         1 4I4      -0.120000
     10 C12         -0.7320    -0.4760     0.6190 c          1 4I4       0.687100
     11 O13         -0.6890     0.5660     1.2530 o          1 4I4      -0.545100
     12 O9           1.4680     0.8760    -1.0670 o          1 4I4      -0.578100
     13 C8           1.9780     0.6660     0.0230 c          1 4I4       0.671100
     14 C10          1.6820    -0.6280     0.7770 c5         1 4I4       0.041700
     15 C25          2.7010    -1.7020     0.3490 c5         1 4I4      -0.093400
     16 C24          1.8270    -2.9380     0.1630 c5         1 4I4       0.106500
     17 N26          2.4430    -3.8400    -0.8270 n2         1 4I4      -0.054200
     18 N27          2.8870    -4.8810    -0.6030 n1         1 4I4       0.229000
     19 N28          3.2300    -5.9940    -0.5170 n2         1 4I4      -0.209400
     20 C23          0.5260    -2.3800    -0.4020 c5         1 4I4       0.126000
     21 N11          0.4030    -1.1730     0.3790 n          1 4I4      -0.493800
     22 N7           2.8800     1.4910     0.5670 n          1 4I4      -0.463800
     23 C6           3.5140     1.3720     1.8780 c5         1 4I4       0.103000
     24 C5           4.0610     2.7720     2.1100 c5         1 4I4      -0.091400
     25 C4           4.4720     3.2140     0.7120 c5         1 4I4      -0.087400
     26 C3           3.3700     2.6350    -0.1900 c5         1 4I4       0.087400
     27 C1           3.9100     2.2600    -1.5470 c2         1 4I4       0.595600
     28 N2           3.7770     3.0530    -2.5210 n2         1 4I4      -0.801100
     29 OXT          4.5650     1.0930    -1.5160 oh         1 4I4      -0.643600
     30 H141        -2.1730    -2.0480     0.5100 hc         1 4I4       0.056200
     31 H142        -1.8850    -1.2330    -1.0050 hc         1 4I4       0.056200
     32 H151        -3.3650    -0.0150     1.3820 hc         1 4I4       0.067700
     33 H152        -3.0660     0.8100    -0.1340 hc         1 4I4       0.067700
     34 H161        -4.3570    -0.9630    -1.3480 hc         1 4I4       0.041700
     35 H162        -4.6610    -1.7780     0.1750 hc         1 4I4       0.041700
     36 H22         -5.6430     0.9660    -2.0040 ha         1 4I4       0.125500
     37 H18         -6.0310    -0.6020     1.9560 ha         1 4I4       0.125500
     38 H21         -7.5660     2.4530    -1.6060 ha         1 4I4       0.134500
     39 H19         -7.9520     0.8850     2.3580 ha         1 4I4       0.134500
     40 H20         -8.7320     2.4210     0.5770 ha         1 4I4       0.137000
     41 H10          1.7070    -0.4840     1.8580 h1         1 4I4       0.098700
     42 H251         3.1730    -1.4380    -0.5990 hc         1 4I4       0.091200
     43 H252         3.4840    -1.8530     1.0890 hc         1 4I4       0.091200
     44 H24          1.6680    -3.4850     1.0920 h1         1 4I4       0.102700
     45 H231         0.6290    -2.1770    -1.4730 h1         1 4I4       0.084200
     46 H232        -0.3090    -3.0600    -0.2520 h1         1 4I4       0.084200
     47 H28          4.2200    -6.1430    -0.2890 hn         1 4I4       0.524400
     48 H61C         2.7960     1.0790     2.6430 h1         1 4I4       0.044700
     49 H62C         4.3200     0.6320     1.8590 h1         1 4I4       0.044700
     50 H3           2.5740     3.3680    -0.3410 h1         1 4I4       0.111700
     51 H51C         3.2740     3.4180     2.5020 hc         1 4I4       0.069200
     52 H52C         4.8880     2.7770     2.8180 hc         1 4I4       0.069200
     53 H41C         4.5480     4.2940     0.6020 hc         1 4I4       0.069700
     54 H42C         5.4430     2.7850     0.4570 hc         1 4I4       0.069700
     55 H21N         4.2470     2.7310    -3.3640 hn         1 4I4       0.388400
     56 HXT          4.9420     0.8860    -2.3810 ho         1 4I4       0.422000
@<TRIPOS>BOND
     1     1     2 1   
     2     1    10 1   
     3     1    30 1   
     4     1    31 1   
     5     2     3 1   
     6     2    32 1   
     7     2    33 1   
     8     3     4 1   
     9     3    34 1   
    10     3    35 1   
    11     4     5 ar  
    12     4     6 ar  
    13     5     7 ar  
    14     5    36 1   
    15     6     8 ar  
    16     6    37 1   
    17     7     9 ar  
    18     7    38 1   
    19     8     9 ar  
    20     8    39 1   
    21     9    40 1   
    22    10    11 2   
    23    10    21 1   
    24    12    13 2   
    25    13    14 1   
    26    13    22 1   
    27    14    15 1   
    28    14    21 1   
    29    14    41 1   
    30    15    16 1   
    31    15    42 1   
    32    15    43 1   
    33    16    17 1   
    34    16    20 1   
    35    16    44 1   
    36    17    18 2   
    37    18    19 2   
    38    19    47 1   
    39    20    21 1   
    40    20    45 1   
    41    20    46 1   
    42    22    23 1   
    43    22    26 1   
    44    23    24 1   
    45    23    48 1   
    46    23    49 1   
    47    24    25 1   
    48    24    51 1   
    49    24    52 1   
    50    25    26 1   
    51    25    53 1   
    52    25    54 1   
    53    26    27 1   
    54    26    50 1   
    55    27    28 2   
    56    27    29 1   
    57    28    55 1   
    58    29    56 1   
@<TRIPOS>SUBSTRUCTURE
     1 4I4         1 TEMP              0 ****  ****    0 ROOT
