@<TRIPOS>MOLECULE
4I4
   56    58     1     0     0
SMALL
No Charge or Current Charge


@<TRIPOS>ATOM
      1 C14         -2.2090    -1.0630     0.2110 c3         1 4I4      -0.147400
      2 C15         -3.4820    -0.1880     0.3250 c3         1 4I4      -0.067400
      3 C16         -4.7450    -0.8830    -0.2250 c3         1 4I4      -0.028100
      4 C17         -5.9810    -0.0030    -0.1010 ca         1 4I4      -0.090300
      5 C22         -6.3320     0.8800    -1.1400 ca         1 4I4      -0.104500
      6 C18         -6.7800    -0.0590     1.0580 ca         1 4I4      -0.104500
      7 C21         -7.4710     1.6970    -1.0230 ca         1 4I4      -0.105500
      8 C19         -7.9190     0.7570     1.1750 ca         1 4I4      -0.105500
      9 C20         -8.2650     1.6350     0.1340 ca         1 4I4      -0.102000
     10 C12         -0.9090    -0.4190     0.7300 c          1 4I4       0.620100
     11 O13         -0.9230     0.6290     1.3610 o          1 4I4      -0.545100
     12 O9           1.2620     1.4630    -0.7300 o          1 4I4      -0.578100
     13 C8           1.9340     0.9270     0.1450 c          1 4I4       0.604100
     14 C10          1.6400    -0.4740     0.7990 c5         1 4I4       0.041700
     15 C25          2.6220    -1.5260     0.1870 c5         1 4I4      -0.093400
     16 C24          1.8400    -2.8490     0.3950 c5         1 4I4       0.106500
     17 N26          2.3740    -3.8800    -0.5250 n2         1 4I4      -0.054200
     18 N27          3.2010    -4.6770    -0.0570 n1         1 4I4       0.229000
     19 N28          4.0670    -4.9260    -0.9040 n2         1 4I4      -0.209400
     20 C23          0.4160    -2.4540    -0.0730 c5         1 4I4       0.126000
     21 N11          0.3130    -1.0740     0.4610 n          1 4I4      -0.426800
     22 N7           3.1580     1.4870     0.5830 n          1 4I4      -0.396800
     23 C6           3.7670     1.2270     1.9120 c5         1 4I4       0.103000
     24 C5           4.6720     2.4720     2.1140 c5         1 4I4      -0.091400
     25 C4           5.1250     2.7810     0.6670 c5         1 4I4      -0.087400
     26 C3           3.7770     2.6610    -0.1010 c5         1 4I4       0.087400
     27 C1           4.0520     2.3850    -1.5980 c2         1 4I4       0.595600
     28 N2           3.9390     3.3180    -2.4630 n2         1 4I4      -0.801100
     29 OXT          4.4550     1.1670    -1.9720 oh         1 4I4      -0.682600
     30 H141        -2.3380    -2.0170     0.7350 hc         1 4I4       0.056200
     31 H142        -2.0400    -1.3990    -0.8190 hc         1 4I4       0.056200
     32 H151        -3.6490     0.0760     1.3780 hc         1 4I4       0.067700
     33 H152        -3.3250     0.7530    -0.2180 hc         1 4I4       0.067700
     34 H161        -4.5790    -1.1530    -1.2750 hc         1 4I4       0.041700
     35 H162        -4.8990    -1.8270     0.3120 hc         1 4I4       0.041700
     36 H22         -5.7210     0.9360    -2.0390 ha         1 4I4       0.107500
     37 H18         -6.5180    -0.7350     1.8700 ha         1 4I4       0.107500
     38 H21         -7.7360     2.3770    -1.8300 ha         1 4I4       0.116500
     39 H19         -8.5320     0.7090     2.0730 ha         1 4I4       0.116500
     40 H20         -9.1460     2.2670     0.2250 ha         1 4I4       0.119000
     41 H10          1.7420    -0.4020     1.8880 h1         1 4I4       0.098700
     42 H251         2.7950    -1.3290    -0.8790 hc         1 4I4       0.091200
     43 H252         3.6030    -1.5340     0.6760 hc         1 4I4       0.091200
     44 H24          1.8460    -3.1770     1.4450 h1         1 4I4       0.102700
     45 H231         0.3260    -2.4510    -1.1680 h1         1 4I4       0.084200
     46 H232        -0.3420    -3.1340     0.3390 h1         1 4I4       0.084200
     47 H28          4.5230    -5.8170    -0.6740 hn         1 4I4       0.524400
     48 H61C         3.0210     1.1490     2.7130 h1         1 4I4       0.044700
     49 H62C         4.3630     0.3060     1.8920 h1         1 4I4       0.044700
     50 H3           3.1560     3.5570     0.0270 h1         1 4I4       0.111700
     51 H51C         4.1020     3.3080     2.5370 hc         1 4I4       0.069200
     52 H52C         5.5110     2.2730     2.7910 hc         1 4I4       0.069200
     53 H41C         5.5790     3.7730     0.5640 hc         1 4I4       0.069700
     54 H42C         5.8600     2.0440     0.3210 hc         1 4I4       0.069700
     55 H21N         4.1700     2.9810    -3.4050 hn         1 4I4       0.388400
     56 HXT          4.5730     1.2020    -2.9390 ho         1 4I4       0.461000
@<TRIPOS>BOND
     1     1     2 1   
     2     1    10 1   
     3     1    30 1   
     4     1    31 1   
     5     2     3 1   
     6     2    32 1   
     7     2    33 1   
     8     3     4 1   
     9     3    34 1   
    10     3    35 1   
    11     4     5 ar  
    12     4     6 ar  
    13     5     7 ar  
    14     5    36 1   
    15     6     8 ar  
    16     6    37 1   
    17     7     9 ar  
    18     7    38 1   
    19     8     9 ar  
    20     8    39 1   
    21     9    40 1   
    22    10    11 2   
    23    10    21 1   
    24    12    13 2   
    25    13    14 1   
    26    13    22 1   
    27    14    15 1   
    28    14    21 1   
    29    14    41 1   
    30    15    16 1   
    31    15    42 1   
    32    15    43 1   
    33    16    17 1   
    34    16    20 1   
    35    16    44 1   
    36    17    18 2   
    37    18    19 2   
    38    19    47 1   
    39    20    21 1   
    40    20    45 1   
    41    20    46 1   
    42    22    23 1   
    43    22    26 1   
    44    23    24 1   
    45    23    48 1   
    46    23    49 1   
    47    24    25 1   
    48    24    51 1   
    49    24    52 1   
    50    25    26 1   
    51    25    53 1   
    52    25    54 1   
    53    26    27 1   
    54    26    50 1   
    55    27    28 2   
    56    27    29 1   
    57    28    55 1   
    58    29    56 1   
@<TRIPOS>SUBSTRUCTURE
     1 4I4         1 TEMP              0 ****  ****    0 ROOT
