@<TRIPOS>MOLECULE
4I5
   33    35     1     0     0
SMALL
bcc


@<TRIPOS>ATOM
      1 C1          -3.3900    -0.0710     0.1120 ca         1 4I5      -0.001600
      2 N1           2.7290     1.1430     1.7230 nt         1 4I5      -0.668000
      3 O1           4.4890     1.6250     0.4040 o          1 4I5      -0.610100
      4 CL1         -4.9020    -0.9070     0.3290 cl         1 4I5      -0.122400
      5 C2          -3.4030     1.3310     0.0810 ca         1 4I5      -0.100000
      6 N2           0.2380     1.7150    -0.3950 na         1 4I5      -0.171400
      7 C3          -2.2250     2.0310    -0.0880 ca         1 4I5      -0.139000
      8 C4          -1.0470     1.3030    -0.2230 ca         1 4I5      -0.043200
      9 C5          -1.0310    -0.1090    -0.1940 ca         1 4I5      -0.098800
     10 C6          -2.2320    -0.8050    -0.0220 ca         1 4I5      -0.068000
     11 C7           0.3290    -0.5250    -0.3580 cc         1 4I5      -0.115400
     12 C8           1.0690     0.6240    -0.4780 cd         1 4I5      -0.070300
     13 C9           2.5330     0.8140    -0.6970 c3         1 4I5      -0.087500
     14 C10          3.1800    -0.4140    -1.3540 c3         1 4I5      -0.053400
     15 C11          3.3820    -1.6350    -0.4600 c3         1 4I5      -0.076400
     16 C12          2.1700    -2.1020     0.3520 c3         1 4I5      -0.072400
     17 C13          0.8250    -1.9400    -0.3550 c3         1 4I5      -0.002200
     18 C14          3.3380     1.2340     0.5350 c          1 4I5       0.673100
     19 HN1          3.2280     1.3770     2.5650 hn         1 4I5       0.319000
     20 HN1A         1.7980     0.7750     1.8230 hn         1 4I5       0.319000
     21 H2          -4.3370     1.8650     0.1910 ha         1 4I5       0.147000
     22 HN2          0.5350     2.6740    -0.4820 hn         1 4I5       0.303700
     23 H3          -2.2290     3.1130    -0.1100 ha         1 4I5       0.138000
     24 H6          -2.2540    -1.8870     0.0050 ha         1 4I5       0.149000
     25 H9           2.6510     1.6450    -1.4020 hc         1 4I5       0.076700
     26 H10          2.5720    -0.6830    -2.2200 hc         1 4I5       0.055200
     27 H10A         4.1500    -0.1160    -1.7540 hc         1 4I5       0.055200
     28 H11          3.7120    -2.4500    -1.1100 hc         1 4I5       0.044700
     29 H11A         4.2130    -1.4540     0.2280 hc         1 4I5       0.044700
     30 H12          2.3170    -3.1540     0.6090 hc         1 4I5       0.039200
     31 H12A         2.1260    -1.5700     1.3040 hc         1 4I5       0.039200
     32 H13          0.0830    -2.5620     0.1520 hc         1 4I5       0.048700
     33 H13A         0.8890    -2.3330    -1.3750 hc         1 4I5       0.048700
@<TRIPOS>BOND
     1     1     4 1   
     2     1     5 ar  
     3     1    10 ar  
     4     2    18 1   
     5     2    19 1   
     6     2    20 1   
     7     3    18 2   
     8     5     7 ar  
     9     5    21 1   
    10     6     8 1   
    11     6    12 1   
    12     6    22 1   
    13     7     8 ar  
    14     7    23 1   
    15     8     9 ar  
    16     9    10 ar  
    17     9    11 1   
    18    10    24 1   
    19    11    12 2   
    20    11    17 1   
    21    12    13 1   
    22    13    14 1   
    23    13    18 1   
    24    13    25 1   
    25    14    15 1   
    26    14    26 1   
    27    14    27 1   
    28    15    16 1   
    29    15    28 1   
    30    15    29 1   
    31    16    17 1   
    32    16    30 1   
    33    16    31 1   
    34    17    32 1   
    35    17    33 1   
@<TRIPOS>SUBSTRUCTURE
     1 4I5         1 TEMP              0 ****  ****    0 ROOT
