@<TRIPOS>MOLECULE
4I5
   33    35     1     0     0
SMALL
No Charge or Current Charge


@<TRIPOS>ATOM
      1 C1          -3.4770    -0.0580     0.0590 ca         1 4I5       0.090000
      2 N1           3.2340     0.8310     1.6660 nt         1 4I5      -0.601000
      3 O1           3.9090     2.5190     0.3890 o          1 4I5      -0.610100
      4 Cl1         -4.9940    -0.9300     0.2460 cl         1 4I5      -0.214000
      5 C2          -3.4800     1.3550     0.0220 ca         1 4I5      -0.082000
      6 N2           0.2000     1.8110    -0.4010 na         1 4I5      -0.221700
      7 C3          -2.2680     2.0630    -0.1300 ca         1 4I5      -0.121000
      8 C4          -1.0820     1.3250    -0.2390 ca         1 4I5      -0.043200
      9 C5          -1.0800    -0.0400    -0.2020 ca         1 4I5      -0.098800
     10 C6          -2.2680    -0.7740    -0.0550 ca         1 4I5      -0.050000
     11 C7           0.2810    -0.4840    -0.3390 cc         1 4I5      -0.115400
     12 C8           1.0470     0.6790    -0.4670 cd         1 4I5      -0.070300
     13 C9           2.5370     0.8340    -0.7080 c3         1 4I5      -0.087500
     14 C10          3.2100    -0.4490    -1.2740 c3         1 4I5      -0.053400
     15 C11          3.3450    -1.6800    -0.3410 c3         1 4I5      -0.076400
     16 C12          2.0690    -2.1310     0.4130 c3         1 4I5      -0.072400
     17 C13          0.7430    -1.9220    -0.3430 c3         1 4I5      -0.002200
     18 C14          3.2990     1.4660     0.4770 c          1 4I5       0.606100
     19 HN1          3.7030     1.2280     2.4660 hn         1 4I5       0.319000
     20 HN1A         2.6960    -0.0160     1.7500 hn         1 4I5       0.319000
     21 H2          -4.4180     1.8970     0.1100 ha         1 4I5       0.129000
     22 HN2          0.4750     2.7840    -0.4820 hn         1 4I5       0.354000
     23 H3          -2.2590     3.1500    -0.1620 ha         1 4I5       0.120000
     24 H6          -2.2640    -1.8600    -0.0300 ha         1 4I5       0.131000
     25 H9           2.6360     1.5690    -1.5160 hc         1 4I5       0.076700
     26 H10          2.6620    -0.7520    -2.1750 hc         1 4I5       0.055200
     27 H10A         4.2160    -0.1820    -1.6230 hc         1 4I5       0.055200
     28 H11          3.6910    -2.5200    -0.9560 hc         1 4I5       0.044700
     29 H11A         4.1440    -1.5020     0.3890 hc         1 4I5       0.044700
     30 H12          2.1740    -3.1970     0.6480 hc         1 4I5       0.039200
     31 H12A         2.0030    -1.6220     1.3810 hc         1 4I5       0.039200
     32 H13         -0.0180    -2.5500     0.1350 hc         1 4I5       0.048700
     33 H13A         0.8380    -2.2880    -1.3730 hc         1 4I5       0.048700
@<TRIPOS>BOND
     1     1     4 1   
     2     1     5 ar  
     3     1    10 ar  
     4     2    18 1   
     5     2    19 1   
     6     2    20 1   
     7     3    18 2   
     8     5     7 ar  
     9     5    21 1   
    10     6     8 1   
    11     6    12 1   
    12     6    22 1   
    13     7     8 ar  
    14     7    23 1   
    15     8     9 ar  
    16     9    10 ar  
    17     9    11 1   
    18    10    24 1   
    19    11    12 2   
    20    11    17 1   
    21    12    13 1   
    22    13    14 1   
    23    13    18 1   
    24    13    25 1   
    25    14    15 1   
    26    14    26 1   
    27    14    27 1   
    28    15    16 1   
    29    15    28 1   
    30    15    29 1   
    31    16    17 1   
    32    16    30 1   
    33    16    31 1   
    34    17    32 1   
    35    17    33 1   
@<TRIPOS>SUBSTRUCTURE
     1 4I5         1 TEMP              0 ****  ****    0 ROOT
