@<TRIPOS>MOLECULE
4I6
   28    27     1     0     0
SMALL
bcc


@<TRIPOS>ATOM
      1 C9           7.7390   -25.2190    -3.5510 c3         1 4I6       0.641900
      2 C8           7.3100   -23.7290    -3.6430 c3         1 4I6       0.327600
      3 C7           7.5400   -23.0470    -5.0140 c3         1 4I6       0.346600
      4 O1           4.8410   -15.9730    -1.7860 o          1 4I6      -0.757300
      5 O2           7.0630   -15.9790    -1.4390 o          1 4I6      -0.757300
      6 C4           6.8020   -19.0900    -4.7200 c3         1 4I6       0.333600
      7 C5           7.1570   -20.5220    -4.2330 c3         1 4I6       0.355600
      8 C1           5.9800   -16.4430    -1.8120 c          1 4I6       0.938600
      9 C6           6.8650   -21.6530    -5.2620 c3         1 4I6       0.355600
     10 C3           6.9500   -17.9160    -3.6950 c3         1 4I6       0.366600
     11 C2           6.1030   -17.8890    -2.4040 c3         1 4I6       0.224600
     12 F93          6.9810   -25.9850    -4.3220 f          1 4I6      -0.208300
     13 F91          7.5980   -25.6170    -2.2940 f          1 4I6      -0.208300
     14 F92          9.0080   -25.3720    -3.9010 f          1 4I6      -0.208300
     15 F81          6.0070   -23.6690    -3.3310 f          1 4I6      -0.178300
     16 F82          8.0130   -23.0590    -2.7170 f          1 4I6      -0.178300
     17 F71          8.8570   -22.9220    -5.2120 f          1 4I6      -0.191300
     18 F72          7.0440   -23.8500    -5.9720 f          1 4I6      -0.191300
     19 F61          7.2960   -21.2740    -6.4760 f          1 4I6      -0.185800
     20 F62          5.5410   -21.8380    -5.3270 f          1 4I6      -0.185800
     21 F51          6.4390   -20.8040    -3.1340 f          1 4I6      -0.184800
     22 F52          8.4600   -20.5410    -3.9170 f          1 4I6      -0.184800
     23 F41          7.6440   -18.7910    -5.7270 f          1 4I6      -0.201800
     24 F42          5.5540   -19.0930    -5.2090 f          1 4I6      -0.201800
     25 F31          8.2520   -17.8250    -3.3820 f          1 4I6      -0.198300
     26 F32          6.6160   -16.8170    -4.4110 f          1 4I6      -0.198300
     27 F21          4.8900   -18.4230    -2.6770 f          1 4I6      -0.235300
     28 F22          6.6950   -18.6980    -1.4880 f          1 4I6      -0.235300
@<TRIPOS>BOND
     1     1     2 1   
     2     1    12 1   
     3     1    13 1   
     4     1    14 1   
     5     2     3 1   
     6     2    15 1   
     7     2    16 1   
     8     3     9 1   
     9     3    17 1   
    10     3    18 1   
    11     4     8 1   
    12     5     8 1   
    13     6     7 1   
    14     6    10 1   
    15     6    23 1   
    16     6    24 1   
    17     7     9 1   
    18     7    21 1   
    19     7    22 1   
    20     8    11 1   
    21     9    19 1   
    22     9    20 1   
    23    10    11 1   
    24    10    25 1   
    25    10    26 1   
    26    11    27 1   
    27    11    28 1   
@<TRIPOS>SUBSTRUCTURE
     1 4I6         1 TEMP              0 ****  ****    0 ROOT
