@<TRIPOS>MOLECULE
4I6
   28    27     1     0     0
SMALL
No Charge or Current Charge


@<TRIPOS>ATOM
      1 C9           7.6650   -25.2730    -3.5110 c3         1 4I6       0.278000
      2 C8           7.2500   -23.7700    -3.6350 c3         1 4I6       0.085000
      3 C7           7.6660   -23.0560    -4.9810 c3         1 4I6       0.104000
      4 O1           5.0190   -15.8870    -1.7220 o          1 4I6      -0.652000
      5 O2           7.1120   -15.9820    -1.2310 o          1 4I6      -0.652000
      6 C4           6.6430   -19.0610    -4.7740 c3         1 4I6       0.091000
      7 C5           7.1290   -20.4910    -4.2980 c3         1 4I6       0.113000
      8 C1           6.1060   -16.4530    -1.7490 c          1 4I6       0.728000
      9 C6           6.9720   -21.6800    -5.3350 c3         1 4I6       0.113000
     10 C3           6.8740   -17.8440    -3.7890 c3         1 4I6       0.124000
     11 C2           6.1910   -17.8850    -2.3730 c3         1 4I6      -0.018000
     12 F93          6.9680   -26.0530    -4.3710 f          1 4I6      -0.087000
     13 F91          7.4320   -25.7440    -2.2630 f          1 4I6      -0.087000
     14 F92          8.9800   -25.4530    -3.7810 f          1 4I6      -0.087000
     15 F81          5.9100   -23.6790    -3.4580 f          1 4I6      -0.057000
     16 F82          7.8070   -23.1050    -2.5930 f          1 4I6      -0.057000
     17 F71          9.0100   -22.8720    -4.9620 f          1 4I6      -0.070000
     18 F72          7.4440   -23.9080    -6.0120 f          1 4I6      -0.070000
     19 F61          7.4500   -21.2900    -6.5420 f          1 4I6      -0.064500
     20 F62          5.6490   -21.8970    -5.5350 f          1 4I6      -0.064500
     21 F51          6.4290   -20.8210    -3.1890 f          1 4I6      -0.063500
     22 F52          8.4190   -20.4110    -3.8930 f          1 4I6      -0.063500
     23 F41          7.2650   -18.7490    -5.9380 f          1 4I6      -0.080500
     24 F42          5.3260   -19.1360    -5.0870 f          1 4I6      -0.080500
     25 F31          8.2070   -17.6750    -3.6060 f          1 4I6      -0.077000
     26 F32          6.4600   -16.7170    -4.4210 f          1 4I6      -0.077000
     27 F21          4.9580   -18.4470    -2.4620 f          1 4I6      -0.114000
     28 F22          6.9010   -18.6990    -1.5470 f          1 4I6      -0.114000
@<TRIPOS>BOND
     1     1     2 1   
     2     1    12 1   
     3     1    13 1   
     4     1    14 1   
     5     2     3 1   
     6     2    15 1   
     7     2    16 1   
     8     3     9 1   
     9     3    17 1   
    10     3    18 1   
    11     4     8 1   
    12     5     8 1   
    13     6     7 1   
    14     6    10 1   
    15     6    23 1   
    16     6    24 1   
    17     7     9 1   
    18     7    21 1   
    19     7    22 1   
    20     8    11 1   
    21     9    19 1   
    22     9    20 1   
    23    10    11 1   
    24    10    25 1   
    25    10    26 1   
    26    11    27 1   
    27    11    28 1   
@<TRIPOS>SUBSTRUCTURE
     1 4I6         1 TEMP              0 ****  ****    0 ROOT
