@<TRIPOS>MOLECULE
4I7
   78    84     1     0     0
SMALL
No Charge or Current Charge


@<TRIPOS>ATOM
      1 C1           1.4310     4.7100    -1.9520 c3         1 4I7       0.144900
      2 C2           1.5670     2.3650    -1.1680 ca         1 4I7       0.130100
      3 C3           0.2160     2.1150    -1.4850 ca         1 4I7      -0.178000
      4 C4          -0.3460     0.8500    -1.2520 ca         1 4I7      -0.069000
      5 C5           0.4230    -0.2030    -0.7050 ca         1 4I7      -0.125900
      6 C6           1.7750     0.0590    -0.3760 ca         1 4I7      -0.152000
      7 C9           5.9420     1.2480     0.4480 ca         1 4I7      -0.035300
      8 C10          6.1970     1.9000     1.6720 ca         1 4I7      -0.092000
      9 C11          7.4380     2.5010     1.9250 ca         1 4I7      -0.082000
     10 C12          8.4430     2.4560     0.9500 ca         1 4I7      -0.114000
     11 C13          8.2070     1.8150    -0.2760 ca         1 4I7      -0.065000
     12 C14          6.9580     1.2060    -0.5520 ca         1 4I7      -0.193300
     13 C22         -5.5190     1.1450    -0.5480 ca         1 4I7       0.434900
     14 C23         -6.4000     1.7840     0.3380 ca         1 4I7      -0.331000
     15 C25         -7.8430     3.5330     0.9530 cc         1 4I7      -0.295800
     16 C26         -6.9440     2.9930    -0.0330 ca         1 4I7       0.155800
     17 C33          0.8340    -2.8470     1.4540 c6         1 4I7      -0.037200
     18 C15          6.7340     0.5120    -1.9120 c3         1 4I7       0.353300
     19 C16         -0.2200    -1.5430    -0.4380 ce         1 4I7       0.406900
     20 C17         -3.5920    -2.6780     0.3890 c6         1 4I7       0.133700
     21 C18         -4.5790    -2.5010    -0.7950 c6         1 4I7      -0.110900
     22 C19         -4.6050    -1.0550    -1.3410 c6         1 4I7       0.216300
     23 C20         -3.9340    -0.1420     0.8680 c6         1 4I7       0.216300
     24 C21         -3.8310    -1.5720     1.4580 c6         1 4I7      -0.110900
     25 C24         -7.9620     2.6930     2.0520 cd         1 4I7      -0.150400
     26 C27         -5.8140     2.9050    -2.0060 ca         1 4I7       0.166900
     27 C28         -1.5540    -4.0850    -0.2290 c          1 4I7       0.558000
     28 C29         -0.0590    -4.0730    -0.6370 c6         1 4I7      -0.140700
     29 C30          0.7490    -5.3420    -0.2370 c6         1 4I7      -0.029200
     30 C31          1.2170    -5.3280     1.2080 c2         1 4I7      -0.207200
     31 C32          1.2600    -4.2160     1.9570 c2         1 4I7      -0.225200
     32 C34          0.6340    -2.7800    -0.0940 c6         1 4I7      -0.130000
     33 C7           2.3510     1.3300    -0.6080 ca         1 4I7       0.107100
     34 C8           4.5600     0.6140     0.2600 c3         1 4I7       0.197900
     35 F1           5.6250     0.9610    -2.5400 f          1 4I7      -0.115333
     36 F2           7.7570     0.7010    -2.7770 f          1 4I7      -0.115333
     37 F3           6.6000    -0.8270    -1.7700 f          1 4I7      -0.115333
     38 N1          -1.5160    -1.6490    -0.4580 n2         1 4I7      -0.458300
     39 N2          -2.1700    -2.8100    -0.0580 n          1 4I7      -0.182800
     40 N3          -4.9160    -0.0920    -0.2480 nh         1 4I7      -0.761300
     41 N4          -6.6680     3.5850    -1.2070 nb         1 4I7      -0.189000
     42 N5          -5.2280     1.7140    -1.7390 nb         1 4I7      -0.287000
     43 O1           2.1530     3.6020    -1.3860 os         1 4I7      -0.322100
     44 O2           3.6740     1.6010    -0.2970 os         1 4I7      -0.329100
     45 O3          -2.1950    -5.1280    -0.1610 o          1 4I7      -0.530000
     46 S1          -6.9740     1.2070     1.9180 ss         1 4I7       0.077400
     47 H1           1.0630     4.4630    -2.9560 h1         1 4I7       0.043367
     48 H2           0.5780     4.9840    -1.3190 h1         1 4I7       0.043367
     49 H3           2.0860     5.5860    -2.0360 h1         1 4I7       0.043367
     50 H4          -0.4160     2.8880    -1.9120 ha         1 4I7       0.125000
     51 H5          -1.3920     0.6940    -1.5090 ha         1 4I7       0.131000
     52 H6           2.3780    -0.7250     0.0660 ha         1 4I7       0.123000
     53 H7           5.4230     1.9430     2.4360 ha         1 4I7       0.144000
     54 H8           7.6200     3.0000     2.8740 ha         1 4I7       0.121000
     55 H9           9.4080     2.9200     1.1440 ha         1 4I7       0.123000
     56 H10          9.0110     1.7990    -1.0090 ha         1 4I7       0.132000
     57 H11         -8.3700     4.4790     0.8550 ha         1 4I7       0.220000
     58 H12         -0.0980    -2.5720     1.9670 hc         1 4I7       0.055700
     59 H13          1.5760    -2.0990     1.7660 hc         1 4I7       0.055700
     60 H14         -3.8550    -3.6270     0.8790 h1         1 4I7       0.086700
     61 H15         -4.3310    -3.2030    -1.6020 hc         1 4I7       0.059700
     62 H16         -5.5900    -2.7650    -0.4590 hc         1 4I7       0.059700
     63 H17         -3.6390    -0.8110    -1.8090 h1         1 4I7       0.070450
     64 H18         -5.3690    -0.9990    -2.1300 h1         1 4I7       0.070450
     65 H19         -4.2260     0.5450     1.6750 h1         1 4I7       0.070450
     66 H20         -2.9490     0.1990     0.5210 h1         1 4I7       0.070450
     67 H21         -4.7710    -1.7910     1.9820 hc         1 4I7       0.059700
     68 H22         -3.0420    -1.6070     2.2210 hc         1 4I7       0.059700
     69 H23         -8.5700     2.8440     2.9400 h4         1 4I7       0.219000
     70 H24         -5.5760     3.3630    -2.9650 h5         1 4I7       0.045100
     71 H25         -0.0750    -3.9920    -1.7320 hc         1 4I7       0.079700
     72 H26          0.1580    -6.2480    -0.4300 hc         1 4I7       0.064700
     73 H27          1.6340    -5.4250    -0.8830 hc         1 4I7       0.064700
     74 H28          1.5330    -6.2880     1.6220 ha         1 4I7       0.179000
     75 H29          1.6090    -4.2600     2.9920 ha         1 4I7       0.178000
     76 H30          1.6160    -2.7030    -0.5780 hc         1 4I7       0.076700
     77 H31          4.6240    -0.2650    -0.3910 h1         1 4I7       0.054700
     78 H32          4.1850     0.2730     1.2340 h1         1 4I7       0.054700
@<TRIPOS>BOND
     1     1    43 1   
     2     1    47 1   
     3     1    48 1   
     4     1    49 1   
     5     2     3 ar  
     6     2    33 ar  
     7     2    43 1   
     8     3     4 ar  
     9     3    50 1   
    10     4     5 ar  
    11     4    51 1   
    12     5     6 ar  
    13     5    19 1   
    14     6    33 ar  
    15     6    52 1   
    16     7     8 ar  
    17     7    12 ar  
    18     7    34 1   
    19     8     9 ar  
    20     8    53 1   
    21     9    10 ar  
    22     9    54 1   
    23    10    11 ar  
    24    10    55 1   
    25    11    12 ar  
    26    11    56 1   
    27    12    18 1   
    28    13    14 ar  
    29    13    40 1   
    30    13    42 ar  
    31    14    16 ar  
    32    14    46 1   
    33    15    16 1   
    34    15    25 2   
    35    15    57 1   
    36    16    41 ar  
    37    17    31 1   
    38    17    32 1   
    39    17    58 1   
    40    17    59 1   
    41    18    35 1   
    42    18    36 1   
    43    18    37 1   
    44    19    32 1   
    45    19    38 2   
    46    20    21 1   
    47    20    24 1   
    48    20    39 1   
    49    20    60 1   
    50    21    22 1   
    51    21    61 1   
    52    21    62 1   
    53    22    40 1   
    54    22    63 1   
    55    22    64 1   
    56    23    24 1   
    57    23    40 1   
    58    23    65 1   
    59    23    66 1   
    60    24    67 1   
    61    24    68 1   
    62    25    46 1   
    63    25    69 1   
    64    26    41 ar  
    65    26    42 ar  
    66    26    70 1   
    67    27    28 1   
    68    27    39 1   
    69    27    45 2   
    70    28    29 1   
    71    28    32 1   
    72    28    71 1   
    73    29    30 1   
    74    29    72 1   
    75    29    73 1   
    76    30    31 2   
    77    30    74 1   
    78    31    75 1   
    79    32    76 1   
    80    33    44 1   
    81    34    44 1   
    82    34    77 1   
    83    34    78 1   
    84    38    39 1   
@<TRIPOS>SUBSTRUCTURE
     1 4I7         1 TEMP              0 ****  ****    0 ROOT
