@<TRIPOS>MOLECULE
4I7
   78    84     1     0     0
SMALL
bcc


@<TRIPOS>ATOM
      1 C1           2.0500     4.7390    -2.3670 c3         1 4I7       0.121700
      2 C2           1.9460     2.5240    -1.5420 ca         1 4I7       0.130100
      3 C3           0.5940     2.3900    -1.8250 ca         1 4I7      -0.196000
      4 C4          -0.0750     1.2050    -1.5520 ca         1 4I7      -0.087000
      5 C5           0.5920     0.1220    -0.9940 ca         1 4I7      -0.125900
      6 C6           1.9570     0.2560    -0.7090 ca         1 4I7      -0.170000
      7 C9           6.0610     1.1570     0.2090 ca         1 4I7      -0.035300
      8 C10          6.3430     2.5100     0.0570 ca         1 4I7      -0.110000
      9 C11          7.6090     3.0150     0.3180 ca         1 4I7      -0.100000
     10 C12          8.6210     2.1730     0.7420 ca         1 4I7      -0.132000
     11 C13          8.3590     0.8210     0.9030 ca         1 4I7      -0.083000
     12 C14          7.0930     0.3100     0.6440 ca         1 4I7      -0.193300
     13 C22         -5.9700     0.9660    -0.2420 ca         1 4I7       0.763200
     14 C23         -6.5800     1.3390     0.9880 ca         1 4I7      -0.334700
     15 C25         -8.4360     2.0550     2.2510 cc         1 4I7      -0.245800
     16 C26         -7.9260     1.7290     0.9550 ca         1 4I7       0.484100
     17 C33          0.6830    -2.5400     1.2130 c6         1 4I7      -0.037200
     18 C15          6.8670    -1.1640     0.8130 c3         1 4I7       0.717200
     19 C16         -0.1110    -1.1350    -0.6920 ce         1 4I7       0.406900
     20 C17         -3.5050    -2.0550    -0.1870 c6         1 4I7       0.133700
     21 C18         -4.2800    -1.5800    -1.4250 c6         1 4I7      -0.110900
     22 C19         -4.2620    -0.0690    -1.6390 c6         1 4I7       0.216300
     23 C20         -3.7400     0.3480     0.6610 c6         1 4I7       0.216300
     24 C21         -3.7330    -1.1340     1.0200 c6         1 4I7      -0.110900
     25 C24         -7.5060     1.9000     3.2180 cd         1 4I7      -0.100400
     26 C27         -8.0000     1.3990    -1.2470 ca         1 4I7       0.692900
     27 C28         -1.5580    -3.5220    -0.5500 c          1 4I7       0.700500
     28 C29         -0.1050    -3.5550    -0.9660 c6         1 4I7      -0.140700
     29 C30          0.5740    -4.8780    -0.6480 c6         1 4I7      -0.029200
     30 C31          0.9650    -4.9820     0.7940 c2         1 4I7      -0.157200
     31 C32          1.0080    -3.9440     1.6230 c2         1 4I7      -0.175200
     32 C34          0.6250    -2.3850    -0.3150 c6         1 4I7      -0.130000
     33 C7           2.6310     1.4340    -0.9710 ca         1 4I7       0.107100
     34 C8           4.6660     0.6430    -0.0570 c3         1 4I7       0.174700
     35 F1           6.6540    -1.7770    -0.3630 f          1 4I7      -0.236633
     36 F2           7.9030    -1.7820     1.3820 f          1 4I7      -0.236633
     37 F3           5.7960    -1.4290     1.5790 f          1 4I7      -0.236633
     38 N1          -1.3870    -1.1270    -0.7450 n2         1 4I7      -0.458300
     39 N2          -2.0840    -2.2640    -0.4550 n          1 4I7      -0.249800
     40 N3          -4.6820     0.6030    -0.4130 nh         1 4I7      -0.761300
     41 N4          -8.6550     1.7730    -0.1730 nb         1 4I7      -0.715000
     42 N5          -6.7380     1.0040    -1.3330 nb         1 4I7      -0.813000
     43 O1           2.6810     3.6210    -1.7720 os         1 4I7      -0.298900
     44 O2           3.9390     1.6430    -0.7250 os         1 4I7      -0.305900
     45 O3          -2.2260    -4.5230    -0.3580 o          1 4I7      -0.605500
     46 S1          -5.9850     1.3700     2.6200 ss         1 4I7      -0.049500
     47 H1           1.6410     4.4980    -3.3520 h1         1 4I7       0.043367
     48 H2           1.2490     5.1360    -1.7390 h1         1 4I7       0.043367
     49 H3           2.8170     5.5000    -2.4820 h1         1 4I7       0.043367
     50 H4           0.0410     3.2070    -2.2690 ha         1 4I7       0.143000
     51 H5          -1.1250     1.1280    -1.7950 ha         1 4I7       0.149000
     52 H6           2.4940    -0.5730    -0.2710 ha         1 4I7       0.141000
     53 H7           5.5680     3.1860    -0.2730 ha         1 4I7       0.162000
     54 H8           7.7970     4.0730     0.1880 ha         1 4I7       0.139000
     55 H9           9.6110     2.5570     0.9490 ha         1 4I7       0.141000
     56 H10          9.1590     0.1730     1.2330 ha         1 4I7       0.150000
     57 H11         -9.4510     2.3800     2.4250 ha         1 4I7       0.170000
     58 H12         -0.2630    -2.2350     1.6750 hc         1 4I7       0.055700
     59 H13          1.4300    -1.8550     1.6220 hc         1 4I7       0.055700
     60 H14         -3.8810    -3.0400     0.0780 h1         1 4I7       0.086700
     61 H15         -3.9050    -2.0870    -2.3170 hc         1 4I7       0.059700
     62 H16         -5.3210    -1.8930    -1.3060 hc         1 4I7       0.059700
     63 H17         -3.2590     0.2790    -1.8850 h1         1 4I7       0.070450
     64 H18         -4.9210     0.2060    -2.4550 h1         1 4I7       0.070450
     65 H19         -3.9500     0.9630     1.5320 h1         1 4I7       0.070450
     66 H20         -2.7580     0.6660     0.3140 h1         1 4I7       0.070450
     67 H21         -4.7040    -1.3890     1.4540 hc         1 4I7       0.059700
     68 H22         -2.9850    -1.3310     1.7910 hc         1 4I7       0.059700
     69 H23         -7.6230     2.0710     4.2770 h4         1 4I7       0.169000
     70 H24         -8.5510     1.4100    -2.1830 h5         1 4I7       0.045100
     71 H25         -0.0980    -3.4050    -2.0530 hc         1 4I7       0.079700
     72 H26         -0.0730    -5.7120    -0.9240 hc         1 4I7       0.064700
     73 H27          1.4640    -4.9770    -1.2770 hc         1 4I7       0.064700
     74 H28          1.2300    -5.9680     1.1610 ha         1 4I7       0.129000
     75 H29          1.2860    -4.0960     2.6600 ha         1 4I7       0.128000
     76 H30          1.6430    -2.3720    -0.7060 hc         1 4I7       0.076700
     77 H31          4.6950    -0.2670    -0.6670 h1         1 4I7       0.054700
     78 H32          4.1780     0.3930     0.8920 h1         1 4I7       0.054700
@<TRIPOS>BOND
     1     1    43 1   
     2     1    47 1   
     3     1    48 1   
     4     1    49 1   
     5     2     3 ar  
     6     2    33 ar  
     7     2    43 1   
     8     3     4 ar  
     9     3    50 1   
    10     4     5 ar  
    11     4    51 1   
    12     5     6 ar  
    13     5    19 1   
    14     6    33 ar  
    15     6    52 1   
    16     7     8 ar  
    17     7    12 ar  
    18     7    34 1   
    19     8     9 ar  
    20     8    53 1   
    21     9    10 ar  
    22     9    54 1   
    23    10    11 ar  
    24    10    55 1   
    25    11    12 ar  
    26    11    56 1   
    27    12    18 1   
    28    13    14 ar  
    29    13    40 1   
    30    13    42 ar  
    31    14    16 ar  
    32    14    46 1   
    33    15    16 1   
    34    15    25 2   
    35    15    57 1   
    36    16    41 ar  
    37    17    31 1   
    38    17    32 1   
    39    17    58 1   
    40    17    59 1   
    41    18    35 1   
    42    18    36 1   
    43    18    37 1   
    44    19    32 1   
    45    19    38 2   
    46    20    21 1   
    47    20    24 1   
    48    20    39 1   
    49    20    60 1   
    50    21    22 1   
    51    21    61 1   
    52    21    62 1   
    53    22    40 1   
    54    22    63 1   
    55    22    64 1   
    56    23    24 1   
    57    23    40 1   
    58    23    65 1   
    59    23    66 1   
    60    24    67 1   
    61    24    68 1   
    62    25    46 1   
    63    25    69 1   
    64    26    41 ar  
    65    26    42 ar  
    66    26    70 1   
    67    27    28 1   
    68    27    39 1   
    69    27    45 2   
    70    28    29 1   
    71    28    32 1   
    72    28    71 1   
    73    29    30 1   
    74    29    72 1   
    75    29    73 1   
    76    30    31 2   
    77    30    74 1   
    78    31    75 1   
    79    32    76 1   
    80    33    44 1   
    81    34    44 1   
    82    34    77 1   
    83    34    78 1   
    84    38    39 1   
@<TRIPOS>SUBSTRUCTURE
     1 4I7         1 TEMP              0 ****  ****    0 ROOT
