@<TRIPOS>MOLECULE
4I8
   21    22     1     0     0
SMALL
bcc


@<TRIPOS>ATOM
      1 CAA          4.8290     0.0820    -0.0320 c3         1 4I8       0.130700
      2 CAD          0.8690     1.3760    -0.0240 ca         1 4I8      -0.058000
      3 CAE         -0.4390     1.8470    -0.0270 ca         1 4I8      -0.148000
      4 CAF          0.1290    -0.9410    -0.0110 ca         1 4I8      -0.037000
      5 CAJ          2.5500    -0.5020    -0.0120 c          1 4I8       0.657700
      6 CAK          1.1590     0.0090    -0.0160 ca         1 4I8      -0.151600
      7 CAL         -3.3530    -0.2760    -0.0220 c          1 4I8       0.829600
      8 CAM         -1.4440     0.9010    -0.0230 ca         1 4I8       0.023600
      9 CAN         -1.1500    -0.4570    -0.0160 ca         1 4I8       0.030100
     10 NAG         -2.8150     0.9760    -0.0270 ns         1 4I8      -0.476100
     11 OAB          2.8310    -1.6770     0.0090 o          1 4I8      -0.534000
     12 OAC         -4.5030    -0.6170    -0.0240 o          1 4I8      -0.571500
     13 OAH          3.4530     0.4640    -0.0350 os         1 4I8      -0.417900
     14 OAI         -2.3170    -1.1610    -0.0140 os         1 4I8      -0.280200
     15 H1           5.3930     1.0090    -0.0780 h1         1 4I8       0.051033
     16 H2           5.0900    -0.4550     0.8800 h1         1 4I8       0.051033
     17 H3           5.0740    -0.5340    -0.8960 h1         1 4I8       0.051033
     18 H5          -0.6520     2.9060    -0.0330 ha         1 4I8       0.150000
     19 H6           0.3350    -2.0030    -0.0050 ha         1 4I8       0.180000
     20 H7          -3.3730     1.8160    -0.0330 hn         1 4I8       0.364500
     21 H4           1.6710     2.1000    -0.0270 ha         1 4I8       0.156000
@<TRIPOS>BOND
     1     1    13 1   
     2     1    15 1   
     3     1    16 1   
     4     1    17 1   
     5     2     3 ar  
     6     2     6 ar  
     7     2    21 1   
     8     3     8 ar  
     9     3    18 1   
    10     4     6 ar  
    11     4     9 ar  
    12     4    19 1   
    13     5     6 1   
    14     5    11 2   
    15     5    13 1   
    16     7    10 1   
    17     7    12 2   
    18     7    14 1   
    19     8     9 ar  
    20     8    10 1   
    21     9    14 1   
    22    10    20 1   
@<TRIPOS>SUBSTRUCTURE
     1 4I8         1 TEMP              0 ****  ****    0 ROOT
