@<TRIPOS>MOLECULE
4I8
   21    22     1     0     0
SMALL
No Charge or Current Charge


@<TRIPOS>ATOM
      1 CAA          4.9220     0.1170    -0.0250 c3         1 4I8       0.153900
      2 CAD          0.8700     1.3800    -0.0340 ca         1 4I8      -0.040000
      3 CAE         -0.4660     1.8430    -0.0370 ca         1 4I8      -0.130000
      4 CAF          0.1030    -0.9630    -0.0100 ca         1 4I8      -0.019000
      5 CAJ          2.5930    -0.5170    -0.0170 c          1 4I8       0.608700
      6 CAK          1.1670    -0.0190    -0.0200 ca         1 4I8      -0.151600
      7 CAL         -3.4580    -0.2800    -0.0130 c          1 4I8       0.687100
      8 CAM         -1.4690     0.8760    -0.0260 ca         1 4I8       0.023600
      9 CAN         -1.2040    -0.4680    -0.0130 ca         1 4I8       0.030100
     10 NAG         -2.8540     0.9500    -0.0260 ns         1 4I8      -0.522600
     11 OAB          2.8790    -1.7070    -0.0050 o          1 4I8      -0.485000
     12 OAC         -4.6510    -0.5330    -0.0090 o          1 4I8      -0.496000
     13 OAH          3.5300     0.4860    -0.0280 os         1 4I8      -0.441100
     14 OAI         -2.3930    -1.1610    -0.0050 os         1 4I8      -0.280200
     15 H1           5.5550     1.0130    -0.0350 h1         1 4I8       0.051033
     16 H2           5.1710    -0.4660     0.8710 h1         1 4I8       0.051033
     17 H3           5.1700    -0.4830    -0.9110 h1         1 4I8       0.051033
     18 H5          -0.6990     2.9060    -0.0470 ha         1 4I8       0.132000
     19 H6           0.2860    -2.0360     0.0010 ha         1 4I8       0.162000
     20 H7          -3.3880     1.8120    -0.0340 hn         1 4I8       0.478000
     21 H4           1.6730     2.1150    -0.0420 ha         1 4I8       0.138000
@<TRIPOS>BOND
     1     1    13 1   
     2     1    15 1   
     3     1    16 1   
     4     1    17 1   
     5     2     3 ar  
     6     2     6 ar  
     7     2    21 1   
     8     3     8 ar  
     9     3    18 1   
    10     4     6 ar  
    11     4     9 ar  
    12     4    19 1   
    13     5     6 1   
    14     5    11 2   
    15     5    13 1   
    16     7    10 1   
    17     7    12 2   
    18     7    14 1   
    19     8     9 ar  
    20     8    10 1   
    21     9    14 1   
    22    10    20 1   
@<TRIPOS>SUBSTRUCTURE
     1 4I8         1 TEMP              0 ****  ****    0 ROOT
