@<TRIPOS>MOLECULE
4IA
   23    23     1     0     0
SMALL
abcg2


@<TRIPOS>ATOM
      1 C10         -2.9070    -0.0310     0.0430 c          1 4IA       0.711600
      2 C01          3.5340    -0.2980     1.2810 c3         1 4IA      -0.079100
      3 C03          3.5490    -0.3390    -1.2390 c3         1 4IA      -0.079100
      4 C04          1.4330     0.2120     0.0070 ca         1 4IA      -0.115300
      5 C05          0.6480     1.3610     0.0340 ca         1 4IA      -0.138500
      6 C06         -0.7390     1.2840     0.0450 ca         1 4IA      -0.089500
      7 C07         -1.3880     0.0530     0.0280 ca         1 4IA      -0.130600
      8 C08         -0.6030    -1.0980    -0.0010 ca         1 4IA      -0.089500
      9 C09          0.7810    -1.0210    -0.0110 ca         1 4IA      -0.138500
     10 O11         -3.5270     1.0500     0.0710 o          1 4IA      -0.723000
     11 O12         -3.4050    -1.1740     0.0270 o          1 4IA      -0.723000
     12 H011         4.6170    -0.1660     1.3030 hc         1 4IA       0.025367
     13 H012         3.1200     0.1740     2.1730 hc         1 4IA       0.025367
     14 H013         3.3320    -1.3690     1.3480 hc         1 4IA       0.025367
     15 H021         3.2020     1.3670    -0.0090 hc         1 4IA       0.034700
     16 H031         3.1410     0.1000    -2.1510 hc         1 4IA       0.025367
     17 H032         4.6310    -0.2000    -1.2540 hc         1 4IA       0.025367
     18 H033         3.3560    -1.4130    -1.2720 hc         1 4IA       0.025367
     19 H051         1.1280     2.3340     0.0480 ha         1 4IA       0.082000
     20 H061        -1.3270     2.1920     0.0670 ha         1 4IA       0.124500
     21 H081        -1.0840    -2.0680    -0.0140 ha         1 4IA       0.124500
     22 H091         1.3630    -1.9370    -0.0320 ha         1 4IA       0.082000
     23 C02          2.9410     0.3040     0.0070 c3         1 4IA      -0.006400
@<TRIPOS>BOND
     1     1     7 1   
     2     1    10 1   
     3     1    11 1   
     4     2    12 1   
     5     2    13 1   
     6     2    14 1   
     7     2    23 1   
     8     3    16 1   
     9     3    17 1   
    10     3    18 1   
    11     3    23 1   
    12     4     5 ar  
    13     4     9 ar  
    14     4    23 1   
    15     5     6 ar  
    16     5    19 1   
    17     6     7 ar  
    18     6    20 1   
    19     7     8 ar  
    20     8     9 ar  
    21     8    21 1   
    22     9    22 1   
    23    15    23 1   
@<TRIPOS>SUBSTRUCTURE
     1 4IA         1 TEMP              0 ****  ****    0 ROOT
