@<TRIPOS>MOLECULE
4IA
   23    23     1     0     0
SMALL
No Charge or Current Charge


@<TRIPOS>ATOM
      1 C10         -2.9340    -0.0300     0.0300 c          1 4IA       0.711600
      2 C01          3.5670    -0.3230     1.2950 c3         1 4IA      -0.079100
      3 C03          3.5620    -0.3190    -1.2620 c3         1 4IA      -0.079100
      4 C04          1.4300     0.2060     0.0210 ca         1 4IA      -0.115300
      5 C05          0.6490     1.3770     0.0240 ca         1 4IA      -0.138500
      6 C06         -0.7550     1.3030     0.0270 ca         1 4IA      -0.089500
      7 C07         -1.4140     0.0520     0.0270 ca         1 4IA      -0.130600
      8 C08         -0.6240    -1.1210     0.0240 ca         1 4IA      -0.089500
      9 C09          0.7790    -1.0430     0.0210 ca         1 4IA      -0.138500
     10 O11         -3.5780     1.0110     0.0320 o          1 4IA      -0.723000
     11 O12         -3.4620    -1.1330     0.0300 o          1 4IA      -0.723000
     12 H011         4.6540    -0.1750     1.3150 hc         1 4IA       0.025367
     13 H012         3.1440     0.1480     2.1900 hc         1 4IA       0.025367
     14 H013         3.3670    -1.4000     1.3450 hc         1 4IA       0.025367
     15 H021         3.2470     1.3580     0.0190 hc         1 4IA       0.034700
     16 H031         3.1350     0.1540    -2.1540 hc         1 4IA       0.025367
     17 H032         4.6480    -0.1720    -1.2870 hc         1 4IA       0.025367
     18 H033         3.3620    -1.3960    -1.3140 hc         1 4IA       0.025367
     19 H051         1.1280     2.3540     0.0240 ha         1 4IA       0.082000
     20 H061        -1.3300     2.2270     0.0290 ha         1 4IA       0.124500
     21 H081        -1.0970    -2.1010     0.0240 ha         1 4IA       0.124500
     22 H091         1.3600    -1.9620     0.0190 ha         1 4IA       0.082000
     23 C02          2.9580     0.3000     0.0190 c3         1 4IA      -0.006400
@<TRIPOS>BOND
     1     1     7 1   
     2     1    10 1   
     3     1    11 1   
     4     2    12 1   
     5     2    13 1   
     6     2    14 1   
     7     2    23 1   
     8     3    16 1   
     9     3    17 1   
    10     3    18 1   
    11     3    23 1   
    12     4     5 ar  
    13     4     9 ar  
    14     4    23 1   
    15     5     6 ar  
    16     5    19 1   
    17     6     7 ar  
    18     6    20 1   
    19     7     8 ar  
    20     8     9 ar  
    21     8    21 1   
    22     9    22 1   
    23    15    23 1   
@<TRIPOS>SUBSTRUCTURE
     1 4IA         1 TEMP              0 ****  ****    0 ROOT
