@<TRIPOS>MOLECULE
4IB
   33    34     1     0     0
SMALL
No Charge or Current Charge


@<TRIPOS>ATOM
      1 C1           1.2340     1.1610    -0.4070 ca         1 4IB      -0.022000
      2 C2           3.5530    -0.3580    -0.8400 ca         1 4IB       0.119250
      3 C3           1.2500     0.2220    -1.4640 ca         1 4IB      -0.121300
      4 C4           2.3530     1.3370     0.4220 ca         1 4IB       0.119250
      5 C5           3.5210     0.5790     0.2140 ca         1 4IB       0.204600
      6 C6           2.4310    -0.5340    -1.6690 ca         1 4IB      -0.022000
      7 C7          -0.0150     0.0670    -2.3410 c3         1 4IB       0.061600
      8 C8          -0.1410     1.3560    -3.1990 c3         1 4IB      -0.087100
      9 C9           0.0570    -1.1420    -3.3140 c3         1 4IB      -0.087100
     10 C10         -1.2250    -0.1670    -1.4070 ca         1 4IB      -0.121300
     11 C11         -3.3930    -0.6770     0.3650 ca         1 4IB       0.204600
     12 C12         -2.4140     0.6000    -1.4760 ca         1 4IB      -0.022000
     13 C13         -1.1490    -1.1960    -0.4390 ca         1 4IB      -0.022000
     14 C14         -2.2160    -1.4490     0.4380 ca         1 4IB       0.119250
     15 C15         -3.4830     0.3470    -0.5990 ca         1 4IB       0.119250
     16 O1          -4.4420    -0.9190     1.2210 oh         1 4IB      -0.510100
     17 O2           4.6160     0.7520     1.0270 oh         1 4IB      -0.510100
     18 I1          -2.0090    -3.0460     1.9050 i          1 4IB      -0.295000
     19 I2          -5.2840     1.5590    -0.7470 i          1 4IB      -0.295000
     20 I3           5.3300    -1.5590    -1.2170 i          1 4IB      -0.295000
     21 I4           2.2580     2.7930     2.0360 i          1 4IB      -0.295000
     22 H2           0.3470     1.7610    -0.2200 ha         1 4IB       0.133000
     23 H1           2.5060    -1.2650    -2.4680 ha         1 4IB       0.133000
     24 H5          -0.9780     1.2870    -3.9040 hc         1 4IB       0.042700
     25 H4          -0.2890     2.2430    -2.5720 hc         1 4IB       0.042700
     26 H3           0.7710     1.5150    -3.7870 hc         1 4IB       0.042700
     27 H7           0.8510    -1.0090    -4.0590 hc         1 4IB       0.042700
     28 H8           0.2400    -2.0800    -2.7770 hc         1 4IB       0.042700
     29 H6          -0.8890    -1.2520    -3.8590 hc         1 4IB       0.042700
     30 H11         -2.5360     1.3980    -2.2010 ha         1 4IB       0.133000
     31 H9          -0.2540    -1.8070    -0.3590 ha         1 4IB       0.133000
     32 H10         -5.1600    -0.2820     1.0100 ho         1 4IB       0.485000
     33 H12          4.3950     1.4430     1.6910 ho         1 4IB       0.485000
@<TRIPOS>BOND
     1     1     3 ar  
     2     1     4 ar  
     3     1    22 1   
     4     2     5 ar  
     5     2     6 ar  
     6     2    20 1   
     7     3     6 ar  
     8     3     7 1   
     9     4     5 ar  
    10     4    21 1   
    11     5    17 1   
    12     6    23 1   
    13     7     8 1   
    14     7     9 1   
    15     7    10 1   
    16     8    24 1   
    17     8    25 1   
    18     8    26 1   
    19     9    27 1   
    20     9    28 1   
    21     9    29 1   
    22    10    12 ar  
    23    10    13 ar  
    24    11    14 ar  
    25    11    15 ar  
    26    11    16 1   
    27    12    15 ar  
    28    12    30 1   
    29    13    14 ar  
    30    13    31 1   
    31    14    18 1   
    32    15    19 1   
    33    16    32 1   
    34    17    33 1   
@<TRIPOS>SUBSTRUCTURE
     1 4IB         1 TEMP              0 ****  ****    0 ROOT
