@<TRIPOS>MOLECULE
4IB
   33    34     1     0     0
SMALL
bcc


@<TRIPOS>ATOM
      1 C1           1.2270     1.1520    -0.4070 ca         1 4IB      -0.040000
      2 C2           3.5060    -0.3200    -0.8380 ca         1 4IB      -0.017850
      3 C3           1.2320     0.2170    -1.4380 ca         1 4IB      -0.121300
      4 C4           2.3400     1.3450     0.3910 ca         1 4IB      -0.017850
      5 C5           3.5160     0.6120     0.1990 ca         1 4IB       0.204600
      6 C6           2.3930    -0.5170    -1.6410 ca         1 4IB      -0.040000
      7 C7          -0.0140     0.0660    -2.3070 c3         1 4IB       0.061600
      8 C8          -0.1520     1.3340    -3.1590 c3         1 4IB      -0.087100
      9 C9           0.0760    -1.1330    -3.2600 c3         1 4IB      -0.087100
     10 C10         -1.2150    -0.1540    -1.3900 ca         1 4IB      -0.121300
     11 C11         -3.4150    -0.6700     0.3280 ca         1 4IB       0.204600
     12 C12         -2.3710     0.6060    -1.4620 ca         1 4IB      -0.040000
     13 C13         -1.1690    -1.1790    -0.4440 ca         1 4IB      -0.040000
     14 C14         -2.2400    -1.4290     0.3880 ca         1 4IB      -0.017850
     15 C15         -3.4480     0.3510    -0.6190 ca         1 4IB      -0.017850
     16 O1          -4.3990    -0.9780     1.1730 oh         1 4IB      -0.471100
     17 O2           4.6290     0.7370     0.9240 oh         1 4IB      -0.471100
     18 I1          -2.1130    -2.9830     1.7940 i          1 4IB      -0.157900
     19 I2          -5.1600     1.5650    -0.7970 i          1 4IB      -0.157900
     20 I3           5.2340    -1.4620    -1.1830 i          1 4IB      -0.157900
     21 I4           2.2340     2.7780     1.9320 i          1 4IB      -0.157900
     22 H2           0.3320     1.7330    -0.2200 ha         1 4IB       0.151000
     23 H1           2.4400    -1.2570    -2.4270 ha         1 4IB       0.151000
     24 H5          -1.0080     1.2690    -3.8320 hc         1 4IB       0.042700
     25 H4          -0.2620     2.2330    -2.5510 hc         1 4IB       0.042700
     26 H3           0.7390     1.4570    -3.7740 hc         1 4IB       0.042700
     27 H7           0.8910    -1.0110    -3.9750 hc         1 4IB       0.042700
     28 H8           0.2240    -2.0760    -2.7330 hc         1 4IB       0.042700
     29 H6          -0.8500    -1.2120    -3.8300 hc         1 4IB       0.042700
     30 H11         -2.4490     1.4130    -2.1760 ha         1 4IB       0.151000
     31 H9          -0.2740    -1.7820    -0.3570 ha         1 4IB       0.151000
     32 H10         -5.1740    -0.4120     1.0610 ho         1 4IB       0.446000
     33 H12          4.5360     1.3850     1.6340 ho         1 4IB       0.446000
@<TRIPOS>BOND
     1     1     3 ar  
     2     1     4 ar  
     3     1    22 1   
     4     2     5 ar  
     5     2     6 ar  
     6     2    20 1   
     7     3     6 ar  
     8     3     7 1   
     9     4     5 ar  
    10     4    21 1   
    11     5    17 1   
    12     6    23 1   
    13     7     8 1   
    14     7     9 1   
    15     7    10 1   
    16     8    24 1   
    17     8    25 1   
    18     8    26 1   
    19     9    27 1   
    20     9    28 1   
    21     9    29 1   
    22    10    12 ar  
    23    10    13 ar  
    24    11    14 ar  
    25    11    15 ar  
    26    11    16 1   
    27    12    15 ar  
    28    12    30 1   
    29    13    14 ar  
    30    13    31 1   
    31    14    18 1   
    32    15    19 1   
    33    16    32 1   
    34    17    33 1   
@<TRIPOS>SUBSTRUCTURE
     1 4IB         1 TEMP              0 ****  ****    0 ROOT
