@<TRIPOS>MOLECULE
4IC
   18    18     1     0     0
SMALL
bcc


@<TRIPOS>ATOM
      1 O01         -4.3250     0.3520    -0.1320 o          1 4IC      -0.836300
      2 C02         -3.1670    -0.1100    -0.1150 c          1 4IC       0.936600
      3 O03         -2.7830    -1.1810    -0.6190 o          1 4IC      -0.836300
      4 C04         -2.1130     0.7490     0.6240 c3         1 4IC      -0.206200
      5 C06         -0.7270     0.2080     0.5720 c2         1 4IC      -0.015200
      6 C07          0.3140     0.8480     0.0340 ce         1 4IC      -0.324800
      7 C08          1.6750     0.3400    -0.0180 cc         1 4IC       0.422100
      8 C09          2.7660     0.9590    -0.5780 cd         1 4IC      -0.304600
      9 N10          3.8110     0.1060    -0.3830 na         1 4IC      -0.314900
     10 C11          3.3370    -0.9720     0.2710 cd         1 4IC       0.369400
     11 N12          2.0570    -0.8680     0.5080 nc         1 4IC      -0.668000
     12 H2          -2.1400     1.7690     0.2250 hc         1 4IC       0.029700
     13 H3          -2.4370     0.8360     1.6680 hc         1 4IC       0.029700
     14 H4          -0.5620    -0.7680     1.0160 ha         1 4IC       0.130000
     15 H5           0.1610     1.8260    -0.4140 ha         1 4IC       0.107000
     16 H6           2.8760     1.9040    -1.0830 h4         1 4IC       0.164000
     17 H7           4.7630     0.2530    -0.6750 hn         1 4IC       0.281700
     18 H8           3.9690    -1.8020     0.5500 h5         1 4IC       0.037100
@<TRIPOS>BOND
     1     1     2 1   
     2     2     3 1   
     3     2     4 1   
     4     4     5 1   
     5     4    12 1   
     6     4    13 1   
     7     5     6 2   
     8     5    14 1   
     9     6     7 1   
    10     6    15 1   
    11     7     8 2   
    12     7    11 1   
    13     8     9 1   
    14     8    16 1   
    15     9    10 1   
    16     9    17 1   
    17    10    11 2   
    18    10    18 1   
@<TRIPOS>SUBSTRUCTURE
     1 4IC         1 TEMP              0 ****  ****    0 ROOT
