@<TRIPOS>MOLECULE
4IC
   18    18     1     0     0
SMALL
No Charge or Current Charge


@<TRIPOS>ATOM
      1 O01         -3.6720    -0.6610    -0.7580 o          1 4IC      -0.731000
      2 C02         -3.2320    -0.3390     0.3360 c          1 4IC       0.726000
      3 O03         -3.4770    -0.9470     1.3670 o          1 4IC      -0.731000
      4 C04         -2.1700     0.7720     0.3880 c3         1 4IC      -0.206200
      5 C06         -0.7750     0.2080     0.1840 c2         1 4IC      -0.065200
      6 C07          0.3590     0.9450     0.1800 ce         1 4IC      -0.374800
      7 C08          1.7120     0.4500    -0.0110 cc         1 4IC       0.356800
      8 C09          2.8790     1.1600    -0.0220 cd         1 4IC      -0.272000
      9 N10          3.8700     0.2160    -0.2400 na         1 4IC      -0.314500
     10 C11          3.2510    -1.0150    -0.3500 cd         1 4IC       0.369400
     11 N12          1.9400    -0.8790    -0.2110 nc         1 4IC      -0.668000
     12 H2          -2.3380     1.4850    -0.4280 hc         1 4IC       0.029700
     13 H3          -2.1720     1.2420     1.3790 hc         1 4IC       0.029700
     14 H4          -0.7360    -0.8750     0.0350 ha         1 4IC       0.180000
     15 H5           0.3030     2.0230     0.3300 ha         1 4IC       0.157000
     16 H6           3.0630     2.2210     0.1040 h4         1 4IC       0.146000
     17 H7           4.8690     0.3760    -0.3100 hn         1 4IC       0.332000
     18 H8           3.8010    -1.9330    -0.5240 h5         1 4IC       0.037100
@<TRIPOS>BOND
     1     1     2 1   
     2     2     3 1   
     3     2     4 1   
     4     4     5 1   
     5     4    12 1   
     6     4    13 1   
     7     5     6 2   
     8     5    14 1   
     9     6     7 1   
    10     6    15 1   
    11     7     8 2   
    12     7    11 1   
    13     8     9 1   
    14     8    16 1   
    15     9    10 1   
    16     9    17 1   
    17    10    11 2   
    18    10    18 1   
@<TRIPOS>SUBSTRUCTURE
     1 4IC         1 TEMP              0 ****  ****    0 ROOT
