@<TRIPOS>MOLECULE
4ID
   51    53     1     0     0
SMALL
No Charge or Current Charge


@<TRIPOS>ATOM
      1 C1           3.1490     0.8510     1.4180 c          1 4ID       0.611200
      2 F1          -6.9750    -2.7030    -0.5340 f          1 4ID      -0.112333
      3 N1           1.9850     1.5170     1.4340 ns         1 4ID      -0.386400
      4 O1           4.1830     1.3790     1.7880 o          1 4ID      -0.511000
      5 S1          -0.6670     1.9750     1.0990 ss         1 4ID      -0.121200
      6 C2           0.8010     0.9980     1.0370 cc         1 4ID       0.531800
      7 F2          -5.4760    -1.9660     0.8460 f          1 4ID      -0.112333
      8 N2          -4.3700     0.6330    -0.0730 ns         1 4ID      -0.178000
      9 O2          -3.5960     2.6260     0.8000 o          1 4ID      -0.561100
     10 S2           4.4780    -1.4860     0.8500 sy         1 4ID       1.054600
     11 C3          -1.9950     0.8370     0.4570 c3         1 4ID      -0.061400
     12 F3          -5.0800    -1.9770    -1.2930 f          1 4ID      -0.112333
     13 N3           0.6450    -0.2410     0.5860 nd         1 4ID      -0.699300
     14 O3           5.0360    -1.5170     2.2080 o          1 4ID      -0.531000
     15 C4          -3.3860     1.4800     0.4170 c          1 4ID       0.621100
     16 O4           4.1060    -2.7360     0.1750 o          1 4ID      -0.531000
     17 C5          -5.7610     0.8240    -0.3190 ca         1 4ID      -0.003000
     18 C6          -6.6010    -0.3130    -0.4770 ca         1 4ID      -0.196300
     19 C7          -6.0360    -1.7440    -0.3650 c3         1 4ID       0.361300
     20 C8          -7.9810    -0.1190    -0.7310 ca         1 4ID      -0.055000
     21 C9          -8.5170     1.1730    -0.8350 ca         1 4ID      -0.111000
     22 C10         -7.6860     2.2910    -0.6920 ca         1 4ID      -0.071000
     23 C11         -6.3170     2.1180    -0.4380 ca         1 4ID      -0.104000
     24 C12          1.7970    -1.0380     0.5250 cd         1 4ID       0.227600
     25 C13          3.0080    -0.5010     0.9220 cc         1 4ID      -0.478300
     26 C14          5.6200    -0.5650    -0.2220 ca         1 4ID      -0.262500
     27 C15          6.7990    -0.0410     0.3550 ca         1 4ID       0.003000
     28 C16          7.7180     0.6800    -0.4230 ca         1 4ID      -0.135000
     29 C17          7.4760     0.8950    -1.7880 ca         1 4ID      -0.016300
     30 C18          8.4720     1.6740    -2.6330 c3         1 4ID      -0.056800
     31 C19          6.3050     0.3800    -2.3670 ca         1 4ID      -0.141000
     32 C20          5.3680    -0.3470    -1.6040 ca         1 4ID       0.027700
     33 C21          4.1150    -0.8590    -2.3120 c3         1 4ID      -0.073800
     34 HN1          2.0200     2.4680     1.7680 hn         1 4ID       0.345500
     35 HN2         -4.0370    -0.2930    -0.3070 hn         1 4ID       0.175000
     36 H3          -1.7410     0.5190    -0.5600 h1         1 4ID       0.107200
     37 H3A         -2.0530    -0.0520     1.0960 h1         1 4ID       0.107200
     38 H8          -8.6520    -0.9660    -0.8520 ha         1 4ID       0.137000
     39 H9          -9.5790     1.3070    -1.0320 ha         1 4ID       0.126000
     40 H10         -8.1010     3.2930    -0.7810 ha         1 4ID       0.125000
     41 H11         -5.7000     3.0060    -0.3540 ha         1 4ID       0.130000
     42 H12          1.6780    -2.0590     0.1570 h4         1 4ID       0.239000
     43 H15          7.0150    -0.1850     1.4120 ha         1 4ID       0.149000
     44 H16          8.6200     1.0730     0.0400 ha         1 4ID       0.119000
     45 H18          9.1880     0.9970    -3.1140 hc         1 4ID       0.047700
     46 H18A         7.9670     2.2440    -3.4220 hc         1 4ID       0.047700
     47 H18B         9.0420     2.3880    -2.0260 hc         1 4ID       0.047700
     48 H19          6.1220     0.5490    -3.4260 ha         1 4ID       0.110000
     49 H21          3.2030    -0.4660    -1.8500 hc         1 4ID       0.056367
     50 H21A         4.0900    -0.5490    -3.3630 hc         1 4ID       0.056367
     51 H21B         4.0670    -1.9530    -2.3070 hc         1 4ID       0.056367
@<TRIPOS>BOND
     1     1     3 1   
     2     1     4 2   
     3     1    25 1   
     4     2    19 1   
     5     3     6 1   
     6     3    34 1   
     7     5     6 1   
     8     5    11 1   
     9     6    13 2   
    10     7    19 1   
    11     8    15 1   
    12     8    17 1   
    13     8    35 1   
    14     9    15 2   
    15    10    14 2   
    16    10    16 2   
    17    10    25 1   
    18    10    26 1   
    19    11    15 1   
    20    11    36 1   
    21    11    37 1   
    22    12    19 1   
    23    13    24 1   
    24    17    18 ar  
    25    17    23 ar  
    26    18    19 1   
    27    18    20 ar  
    28    20    21 ar  
    29    20    38 1   
    30    21    22 ar  
    31    21    39 1   
    32    22    23 ar  
    33    22    40 1   
    34    23    41 1   
    35    24    25 2   
    36    24    42 1   
    37    26    27 ar  
    38    26    32 ar  
    39    27    28 ar  
    40    27    43 1   
    41    28    29 ar  
    42    28    44 1   
    43    29    30 1   
    44    29    31 ar  
    45    30    45 1   
    46    30    46 1   
    47    30    47 1   
    48    31    32 ar  
    49    31    48 1   
    50    32    33 1   
    51    33    49 1   
    52    33    50 1   
    53    33    51 1   
@<TRIPOS>SUBSTRUCTURE
     1 4ID         1 TEMP              0 ****  ****    0 ROOT
