@<TRIPOS>MOLECULE
4ID
   51    53     1     0     0
SMALL
bcc


@<TRIPOS>ATOM
      1 C1           2.9150     0.4340     1.3090 c          1 4ID       0.753700
      2 F1          -7.2900    -1.7330     1.6470 f          1 4ID      -0.233633
      3 N1           1.6360     0.9870     1.3420 ns         1 4ID      -0.453400
      4 O1           3.8370     0.9530     1.9010 o          1 4ID      -0.586500
      5 S1          -0.9200     1.3270     0.9320 ss         1 4ID      -0.073300
      6 C2           0.5700     0.4610     0.7090 cc         1 4ID       0.531800
      7 F2          -5.3380    -0.8740     1.9030 f          1 4ID      -0.233633
      8 N2          -4.3660     0.2570    -0.6040 ns         1 4ID      -0.504100
      9 O2          -3.6060     1.9010     0.7540 o          1 4ID      -0.561100
     10 S2           4.4740    -1.6490     0.4020 sy         1 4ID       1.196200
     11 C3          -2.0260     0.3110    -0.0740 c3         1 4ID      -0.109300
     12 F3          -5.7360    -2.1720     0.2330 f          1 4ID      -0.233633
     13 N3           0.6330    -0.6190    -0.0160 nd         1 4ID      -0.699300
     14 O3           4.9290    -1.9260     1.7600 o          1 4ID      -0.601800
     15 C4          -3.4050     0.9130     0.0750 c          1 4ID       0.688100
     16 O4           4.2470    -2.7880    -0.4830 o          1 4ID      -0.601800
     17 C5          -5.7180     0.6800    -0.5870 ca         1 4ID       0.089600
     18 C6          -6.6710    -0.0090     0.1660 ca         1 4ID      -0.196300
     19 C7          -6.2620    -1.1960     0.9860 c3         1 4ID       0.725200
     20 C8          -7.9930     0.4160     0.1560 ca         1 4ID      -0.073000
     21 C9          -8.3620     1.5310    -0.5840 ca         1 4ID      -0.129000
     22 C10         -7.4120     2.2210    -1.3200 ca         1 4ID      -0.089000
     23 C11         -6.0930     1.7920    -1.3230 ca         1 4ID      -0.122000
     24 C12          1.8330    -1.2190    -0.1100 cd         1 4ID       0.277600
     25 C13          2.9610    -0.7590     0.5020 cc         1 4ID      -0.478300
     26 C14          5.6150    -0.5240    -0.3550 ca         1 4ID      -0.262500
     27 C15          6.6570    -0.0600     0.4380 ca         1 4ID      -0.015000
     28 C16          7.6050     0.7950    -0.0940 ca         1 4ID      -0.153000
     29 C17          7.5210     1.2000    -1.4220 ca         1 4ID      -0.016300
     30 C18          8.5490     2.1090    -2.0240 c3         1 4ID      -0.056800
     31 C19          6.4620     0.7270    -2.1920 ca         1 4ID      -0.159000
     32 C20          5.4920    -0.1380    -1.6980 ca         1 4ID       0.027700
     33 C21          4.3840    -0.5770    -2.6100 c3         1 4ID      -0.073800
     34 HN1          1.5320     1.8330     1.8940 hn         1 4ID       0.345500
     35 HN2         -4.1210    -0.5570    -1.1500 hn         1 4ID       0.341500
     36 H3          -1.7080     0.3230    -1.1170 h1         1 4ID       0.107200
     37 H3A         -2.0080    -0.7230     0.2730 h1         1 4ID       0.107200
     38 H8          -8.7460    -0.1060     0.7280 ha         1 4ID       0.155000
     39 H9          -9.3930     1.8560    -0.5810 ha         1 4ID       0.144000
     40 H10         -7.6960     3.0910    -1.8960 ha         1 4ID       0.143000
     41 H11         -5.3490     2.3150    -1.9090 ha         1 4ID       0.148000
     42 H12          1.8610    -2.1160    -0.7180 h4         1 4ID       0.189000
     43 H15          6.7340    -0.3590     1.4730 ha         1 4ID       0.167000
     44 H16          8.4100     1.1540     0.5340 ha         1 4ID       0.137000
     45 H18          9.2620     1.5370    -2.6220 hc         1 4ID       0.047700
     46 H18A         8.0920     2.8450    -2.6840 hc         1 4ID       0.047700
     47 H18B         9.1140     2.6390    -1.2590 hc         1 4ID       0.047700
     48 H19          6.3840     1.0450    -3.2260 ha         1 4ID       0.128000
     49 H21          3.4080    -0.2470    -2.2510 hc         1 4ID       0.056367
     50 H21A         4.5240    -0.1470    -3.5990 hc         1 4ID       0.056367
     51 H21B         4.3430    -1.6580    -2.7170 hc         1 4ID       0.056367
@<TRIPOS>BOND
     1     1     3 1   
     2     1     4 2   
     3     1    25 1   
     4     2    19 1   
     5     3     6 1   
     6     3    34 1   
     7     5     6 1   
     8     5    11 1   
     9     6    13 2   
    10     7    19 1   
    11     8    15 1   
    12     8    17 1   
    13     8    35 1   
    14     9    15 2   
    15    10    14 2   
    16    10    16 2   
    17    10    25 1   
    18    10    26 1   
    19    11    15 1   
    20    11    36 1   
    21    11    37 1   
    22    12    19 1   
    23    13    24 1   
    24    17    18 ar  
    25    17    23 ar  
    26    18    19 1   
    27    18    20 ar  
    28    20    21 ar  
    29    20    38 1   
    30    21    22 ar  
    31    21    39 1   
    32    22    23 ar  
    33    22    40 1   
    34    23    41 1   
    35    24    25 2   
    36    24    42 1   
    37    26    27 ar  
    38    26    32 ar  
    39    27    28 ar  
    40    27    43 1   
    41    28    29 ar  
    42    28    44 1   
    43    29    30 1   
    44    29    31 ar  
    45    30    45 1   
    46    30    46 1   
    47    30    47 1   
    48    31    32 ar  
    49    31    48 1   
    50    32    33 1   
    51    33    49 1   
    52    33    50 1   
    53    33    51 1   
@<TRIPOS>SUBSTRUCTURE
     1 4ID         1 TEMP              0 ****  ****    0 ROOT
