@<TRIPOS>MOLECULE
4IE
   58    61     1     0     0
SMALL
abcg2


@<TRIPOS>ATOM
      1 C1         108.6980   125.3430    88.1170 c3         1 4IE      -0.081600
      2 C10        112.2870   129.7800    86.1680 c3         1 4IE       0.083400
      3 C11        113.3980   127.6220    86.0230 c3         1 4IE       0.083400
      4 C12        113.8250   129.1470    87.9470 c3         1 4IE       0.173900
      5 C13        114.4590   128.1140    88.8280 ca         1 4IE      -0.170300
      6 C14        113.9460   127.8580    90.0990 ca         1 4IE      -0.085000
      7 C15        114.5280   126.9000    90.9180 ca         1 4IE      -0.086000
      8 C16        115.6360   126.1710    90.4820 cp         1 4IE       0.020000
      9 C17        116.1680   126.4480    89.2210 ca         1 4IE      -0.086000
     10 C18        115.5930   127.4140    88.4090 ca         1 4IE      -0.085000
     11 C19        116.2570   125.1600    91.3710 cp         1 4IE      -0.051000
     12 C2         109.3550   125.1440    86.7590 cy         1 4IE      -0.049000
     13 C20        116.7550   125.5620    92.6170 ca         1 4IE      -0.091000
     14 C21        117.3560   124.6630    93.4870 ca         1 4IE      -0.091000
     15 C22        117.4690   123.3250    93.1280 ca         1 4IE      -0.086000
     16 C23        116.9730   122.8910    91.9060 ca         1 4IE      -0.081000
     17 C24        116.3760   123.8050    91.0470 ca         1 4IE       0.010100
     18 C25        109.5290   123.6440    86.5230 c3         1 4IE      -0.081600
     19 C3         108.7570   125.8760    85.5100 cy         1 4IE      -0.067700
     20 C4         108.3260   127.3050    85.8660 c6         1 4IE      -0.053200
     21 C5         109.4160   128.0120    86.6250 c2         1 4IE      -0.129200
     22 C6         110.5510   127.3680    86.9070 c2         1 4IE      -0.205400
     23 C7         110.6710   125.9400    86.4150 cy         1 4IE      -0.050500
     24 C8         110.1960   125.9260    84.9340 cy         1 4IE      -0.090400
     25 C9         111.6250   127.9810    87.7440 c3         1 4IE       0.169800
     26 N1         112.7810   128.6100    86.9600 n4         1 4IE      -0.524000
     27 BR1        115.6410   123.1170    89.4090 br         1 4IE      -0.113100
     28 H1         109.3040   124.8760    88.8980 hc         1 4IE       0.043700
     29 H2         108.5640   126.3900    88.3800 hc         1 4IE       0.043700
     30 H3         107.7160   124.8620    88.1290 hc         1 4IE       0.043700
     31 H4         111.8530   130.5050    86.8520 hx         1 4IE       0.091700
     32 H5         113.1330   130.2140    85.6410 hx         1 4IE       0.091700
     33 H6         111.5390   129.4340    85.4630 hx         1 4IE       0.091700
     34 H7         113.6860   126.7340    86.5740 hx         1 4IE       0.091700
     35 H8         112.6690   127.3730    85.2590 hx         1 4IE       0.091700
     36 H9         114.2690   128.0840    85.5650 hx         1 4IE       0.091700
     37 H10        114.5690   129.6430    87.3270 hx         1 4IE       0.089200
     38 H11        113.3010   129.8960    88.5370 hx         1 4IE       0.089200
     39 H12        113.0850   128.4110    90.4530 ha         1 4IE       0.116000
     40 H13        114.1160   126.7090    91.9000 ha         1 4IE       0.141500
     41 H14        117.0450   125.9150    88.8800 ha         1 4IE       0.141500
     42 H15        116.0310   127.6290    87.4420 ha         1 4IE       0.116000
     43 H16        116.6730   126.6070    92.8890 ha         1 4IE       0.121000
     44 H17        117.7360   125.0080    94.4390 ha         1 4IE       0.131000
     45 H18        117.9360   122.6130    93.7960 ha         1 4IE       0.133000
     46 H19        117.0400   121.8500    91.6240 ha         1 4IE       0.141000
     47 H20        110.1510   123.2110    87.3110 hc         1 4IE       0.043700
     48 H21        108.5560   123.1460    86.5530 hc         1 4IE       0.043700
     49 H22        109.9930   123.4110    85.5660 hc         1 4IE       0.043700
     50 H23        107.9860   125.3520    84.9430 hc         1 4IE       0.088700
     51 H24        108.0850   127.8630    84.9550 hc         1 4IE       0.074200
     52 H25        107.4080   127.2990    86.4640 hc         1 4IE       0.074200
     53 H26        109.2470   129.0300    86.9580 ha         1 4IE       0.178000
     54 H27        111.6180   125.4720    86.6790 hc         1 4IE       0.067700
     55 H28        110.4730   125.0200    84.4030 hc         1 4IE       0.058200
     56 H29        110.4600   126.7970    84.3340 hc         1 4IE       0.058200
     57 H30        112.0830   127.2300    88.3820 hx         1 4IE       0.092700
     58 H31        111.2360   128.7870    88.3630 hx         1 4IE       0.092700
@<TRIPOS>BOND
     1     1    12 1   
     2     1    28 1   
     3     1    29 1   
     4     1    30 1   
     5     2    26 1   
     6     2    31 1   
     7     2    32 1   
     8     2    33 1   
     9     3    26 1   
    10     3    34 1   
    11     3    35 1   
    12     3    36 1   
    13     4     5 1   
    14     4    26 1   
    15     4    37 1   
    16     4    38 1   
    17     5     6 ar  
    18     5    10 ar  
    19     6     7 ar  
    20     6    39 1   
    21     7     8 ar  
    22     7    40 1   
    23     8     9 ar  
    24     8    11 1   
    25     9    10 ar  
    26     9    41 1   
    27    10    42 1   
    28    11    13 ar  
    29    11    17 ar  
    30    12    18 1   
    31    12    19 1   
    32    12    23 1   
    33    13    14 ar  
    34    13    43 1   
    35    14    15 ar  
    36    14    44 1   
    37    15    16 ar  
    38    15    45 1   
    39    16    17 ar  
    40    16    46 1   
    41    17    27 1   
    42    18    47 1   
    43    18    48 1   
    44    18    49 1   
    45    19    20 1   
    46    19    24 1   
    47    19    50 1   
    48    20    21 1   
    49    20    51 1   
    50    20    52 1   
    51    21    22 2   
    52    21    53 1   
    53    22    23 1   
    54    22    25 1   
    55    23    24 1   
    56    23    54 1   
    57    24    55 1   
    58    24    56 1   
    59    25    26 1   
    60    25    57 1   
    61    25    58 1   
@<TRIPOS>SUBSTRUCTURE
     1 4IE         1 TEMP              0 ****  ****    0 ROOT
