@<TRIPOS>MOLECULE
4IE
   58    61     1     0     0
SMALL
No Charge or Current Charge


@<TRIPOS>ATOM
      1 C1         108.5390   125.3500    88.0900 c3         1 4IE      -0.081600
      2 C10        112.2150   129.8150    86.1600 c3         1 4IE       0.083400
      3 C11        113.4210   127.6360    86.0140 c3         1 4IE       0.083400
      4 C12        113.8440   129.1920    87.9410 c3         1 4IE       0.173900
      5 C13        114.5010   128.1550    88.8420 ca         1 4IE      -0.170300
      6 C14        113.9640   127.8780    90.1130 ca         1 4IE      -0.085000
      7 C15        114.5600   126.9070    90.9370 ca         1 4IE      -0.086000
      8 C16        115.7010   126.1900    90.5070 cp         1 4IE       0.020000
      9 C17        116.2440   126.4980    89.2370 ca         1 4IE      -0.086000
     10 C18        115.6510   127.4690    88.4120 ca         1 4IE      -0.085000
     11 C19        116.3280   125.1640    91.3910 cp         1 4IE      -0.051000
     12 C2         109.2790   125.1160    86.7440 cy         1 4IE      -0.049000
     13 C20        116.7430   125.5250    92.6960 ca         1 4IE      -0.091000
     14 C21        117.3410   124.5880    93.5540 ca         1 4IE      -0.091000
     15 C22        117.5290   123.2650    93.1240 ca         1 4IE      -0.086000
     16 C23        117.1140   122.8820    91.8380 ca         1 4IE      -0.081000
     17 C24        116.5160   123.8170    90.9740 ca         1 4IE       0.010100
     18 C25        109.3940   123.5680    86.6260 c3         1 4IE      -0.081600
     19 C3         108.7550   125.8910    85.4580 cy         1 4IE      -0.067700
     20 C4         108.3370   127.3790    85.7330 c6         1 4IE      -0.053200
     21 C5         109.4230   128.0770    86.5530 c2         1 4IE      -0.129200
     22 C6         110.5260   127.4090    86.9390 c2         1 4IE      -0.205400
     23 C7         110.6020   125.9530    86.4830 cy         1 4IE      -0.050500
     24 C8         110.2460   125.8270    84.9560 cy         1 4IE      -0.090400
     25 C9         111.6520   127.9800    87.7760 c3         1 4IE       0.169800
     26 N1         112.7810   128.6460    86.9770 n4         1 4IE      -0.524000
     27 Br1        115.9280   123.1800    89.2610 br         1 4IE      -0.113100
     28 H1         109.0930   124.9070    88.9260 hc         1 4IE       0.043700
     29 H2         108.4040   126.4090    88.3310 hc         1 4IE       0.043700
     30 H3         107.5400   124.8980    88.0740 hc         1 4IE       0.043700
     31 H4         111.7490   130.5350    86.8360 hx         1 4IE       0.091700
     32 H5         113.0240   130.2950    85.6070 hx         1 4IE       0.091700
     33 H6         111.4690   129.4320    85.4610 hx         1 4IE       0.091700
     34 H7         113.8070   126.7910    86.5880 hx         1 4IE       0.091700
     35 H8         112.6650   127.2860    85.3090 hx         1 4IE       0.091700
     36 H9         114.2360   128.1190    85.4720 hx         1 4IE       0.091700
     37 H10        114.6070   129.6900    87.3380 hx         1 4IE       0.089200
     38 H11        113.3640   129.9580    88.5560 hx         1 4IE       0.089200
     39 H12        113.0820   128.4100    90.4620 ha         1 4IE       0.116000
     40 H13        114.1300   126.6970    91.9140 ha         1 4IE       0.141500
     41 H14        117.1360   125.9790    88.8940 ha         1 4IE       0.141500
     42 H15        116.0860   127.6830    87.4380 ha         1 4IE       0.116000
     43 H16        116.6060   126.5490    93.0390 ha         1 4IE       0.121000
     44 H17        117.6580   124.8870    94.5510 ha         1 4IE       0.131000
     45 H18        117.9910   122.5370    93.7880 ha         1 4IE       0.133000
     46 H19        117.2500   121.8530    91.5130 ha         1 4IE       0.141000
     47 H20        109.9610   123.1510    87.4660 hc         1 4IE       0.043700
     48 H21        108.4020   123.0990    86.6300 hc         1 4IE       0.043700
     49 H22        109.8950   123.2360    85.7110 hc         1 4IE       0.043700
     50 H23        108.0100   125.3730    84.8450 hc         1 4IE       0.088700
     51 H24        108.1900   127.9110    84.7830 hc         1 4IE       0.074200
     52 H25        107.3770   127.4160    86.2670 hc         1 4IE       0.074200
     53 H26        109.2560   129.1200    86.8250 ha         1 4IE       0.178000
     54 H27        111.5340   125.4630    86.7900 hc         1 4IE       0.067700
     55 H28        110.5500   124.8960    84.4670 hc         1 4IE       0.058200
     56 H29        110.5750   126.6560    84.3190 hc         1 4IE       0.058200
     57 H30        112.1000   127.1800    88.3700 hx         1 4IE       0.092700
     58 H31        111.2530   128.7230    88.4690 hx         1 4IE       0.092700
@<TRIPOS>BOND
     1     1    12 1   
     2     1    28 1   
     3     1    29 1   
     4     1    30 1   
     5     2    26 1   
     6     2    31 1   
     7     2    32 1   
     8     2    33 1   
     9     3    26 1   
    10     3    34 1   
    11     3    35 1   
    12     3    36 1   
    13     4     5 1   
    14     4    26 1   
    15     4    37 1   
    16     4    38 1   
    17     5     6 ar  
    18     5    10 ar  
    19     6     7 ar  
    20     6    39 1   
    21     7     8 ar  
    22     7    40 1   
    23     8     9 ar  
    24     8    11 1   
    25     9    10 ar  
    26     9    41 1   
    27    10    42 1   
    28    11    13 ar  
    29    11    17 ar  
    30    12    18 1   
    31    12    19 1   
    32    12    23 1   
    33    13    14 ar  
    34    13    43 1   
    35    14    15 ar  
    36    14    44 1   
    37    15    16 ar  
    38    15    45 1   
    39    16    17 ar  
    40    16    46 1   
    41    17    27 1   
    42    18    47 1   
    43    18    48 1   
    44    18    49 1   
    45    19    20 1   
    46    19    24 1   
    47    19    50 1   
    48    20    21 1   
    49    20    51 1   
    50    20    52 1   
    51    21    22 2   
    52    21    53 1   
    53    22    23 1   
    54    22    25 1   
    55    23    24 1   
    56    23    54 1   
    57    24    55 1   
    58    24    56 1   
    59    25    26 1   
    60    25    57 1   
    61    25    58 1   
@<TRIPOS>SUBSTRUCTURE
     1 4IE         1 TEMP              0 ****  ****    0 ROOT
