@<TRIPOS>MOLECULE
4IF
   53    52     1     0     0
SMALL
No Charge or Current Charge


@<TRIPOS>ATOM
      1 C18         10.5820   -20.4790     0.4410 c3         1 4IF      -0.090100
      2 C4           6.5300   -18.5120    -4.7470 c3         1 4IF      -0.073400
      3 C3           6.9160   -17.3370    -3.8170 c3         1 4IF      -0.060400
      4 C2           6.3170   -17.4190    -2.3890 c3         1 4IF      -0.208400
      5 C5           7.1240   -19.8840    -4.3450 c3         1 4IF      -0.080400
      6 C6           6.7440   -21.0050    -5.3400 c3         1 4IF      -0.072400
      7 C1           6.6260   -16.1280    -1.6080 c          1 4IF       0.714000
      8 C7           7.4050   -22.3760    -5.0630 c3         1 4IF      -0.069400
      9 C12          7.4900   -23.8970    -0.0790 c2         1 4IF      -0.190200
     10 C11          7.9220   -24.6840    -1.0810 c2         1 4IF      -0.242200
     11 C10          7.1290   -25.1860    -2.2750 c3         1 4IF      -0.035200
     12 C9           7.5140   -24.4900    -3.5990 c3         1 4IF      -0.068400
     13 C8           6.9860   -23.0420    -3.7310 c3         1 4IF      -0.080400
     14 C13          6.1130   -23.2750     0.0700 c3         1 4IF      -0.044200
     15 O1           7.6740   -16.0680    -0.9830 o          1 4IF      -0.744000
     16 C14          6.1210   -21.8690     0.7210 c3         1 4IF      -0.068400
     17 C15          6.6640   -20.7190    -0.1700 c3         1 4IF      -0.076400
     18 O2           5.8350   -15.2010    -1.6900 o          1 4IF      -0.744000
     19 C16          8.1870   -20.7170    -0.4640 c3         1 4IF      -0.077400
     20 C17          9.0820   -20.5390     0.7840 c3         1 4IF      -0.066400
     21 H1          11.1780   -20.3520     1.3520 hc         1 4IF       0.029367
     22 H2          10.9040   -21.4030    -0.0540 hc         1 4IF       0.029367
     23 H3          10.7940   -19.6360    -0.2280 hc         1 4IF       0.029367
     24 H4           6.8700   -18.2690    -5.7620 hc         1 4IF       0.016200
     25 H5           5.4370   -18.5890    -4.7950 hc         1 4IF       0.016200
     26 H6           8.0100   -17.2690    -3.7520 hc         1 4IF       0.039700
     27 H7           6.5750   -16.4060    -4.2860 hc         1 4IF       0.039700
     28 H8           5.2340   -17.5350    -2.5210 hc         1 4IF       0.015700
     29 H9           6.7980   -18.2760    -1.9070 hc         1 4IF       0.015700
     30 H10          6.7670   -20.1550    -3.3470 hc         1 4IF       0.043700
     31 H11          8.2160   -19.8030    -4.2880 hc         1 4IF       0.043700
     32 H12          7.0300   -20.6900    -6.3510 hc         1 4IF       0.028700
     33 H13          5.6540   -21.1270    -5.3490 hc         1 4IF       0.028700
     34 H14          7.1460   -23.0500    -5.8890 hc         1 4IF       0.025700
     35 H15          8.4960   -22.2630    -5.0830 hc         1 4IF       0.025700
     36 H16          8.1780   -23.6430     0.7290 ha         1 4IF       0.169000
     37 H17          8.9500   -25.0510    -1.0600 ha         1 4IF       0.159000
     38 H18          6.0490   -25.0860    -2.1140 hc         1 4IF       0.034200
     39 H19          7.3090   -26.2620    -2.3870 hc         1 4IF       0.034200
     40 H20          7.1130   -25.0840    -4.4300 hc         1 4IF       0.028700
     41 H21          8.6060   -24.4960    -3.7070 hc         1 4IF       0.028700
     42 H22          7.3570   -22.4440    -2.8920 hc         1 4IF       0.049200
     43 H23          5.8910   -23.0520    -3.6580 hc         1 4IF       0.049200
     44 H24          5.5980   -23.2110    -0.8950 hc         1 4IF       0.035200
     45 H25          5.5010   -23.9320     0.7000 hc         1 4IF       0.035200
     46 H26          6.6610   -21.9020     1.6740 hc         1 4IF       0.031700
     47 H27          5.0840   -21.6220     0.9770 hc         1 4IF       0.031700
     48 H28          6.4070   -19.7650     0.3070 hc         1 4IF       0.050700
     49 H29          6.1200   -20.7330    -1.1220 hc         1 4IF       0.050700
     50 H31          8.4720   -21.6340    -0.9890 hc         1 4IF       0.046700
     51 H32          8.4000   -19.8970    -1.1610 hc         1 4IF       0.046700
     52 H33          8.7980   -19.6170     1.3060 hc         1 4IF       0.032200
     53 H34          8.9180   -21.3670     1.4830 hc         1 4IF       0.032200
@<TRIPOS>BOND
     1     1    20 1   
     2     1    21 1   
     3     1    22 1   
     4     1    23 1   
     5     2     3 1   
     6     2     5 1   
     7     2    24 1   
     8     2    25 1   
     9     3     4 1   
    10     3    26 1   
    11     3    27 1   
    12     4     7 1   
    13     4    28 1   
    14     4    29 1   
    15     5     6 1   
    16     5    30 1   
    17     5    31 1   
    18     6     8 1   
    19     6    32 1   
    20     6    33 1   
    21     7    15 1   
    22     7    18 1   
    23     8    13 1   
    24     8    34 1   
    25     8    35 1   
    26     9    10 2   
    27     9    14 1   
    28     9    36 1   
    29    10    11 1   
    30    10    37 1   
    31    11    12 1   
    32    11    38 1   
    33    11    39 1   
    34    12    13 1   
    35    12    40 1   
    36    12    41 1   
    37    13    42 1   
    38    13    43 1   
    39    14    16 1   
    40    14    44 1   
    41    14    45 1   
    42    16    17 1   
    43    16    46 1   
    44    16    47 1   
    45    17    19 1   
    46    17    48 1   
    47    17    49 1   
    48    19    20 1   
    49    19    50 1   
    50    19    51 1   
    51    20    52 1   
    52    20    53 1   
@<TRIPOS>SUBSTRUCTURE
     1 4IF         1 TEMP              0 ****  ****    0 ROOT
