@<TRIPOS>MOLECULE
4IF
   53    52     1     0     0
SMALL
bcc


@<TRIPOS>ATOM
      1 C18         10.2390   -19.7760     0.2650 c3         1 4IF      -0.090100
      2 C4           6.9080   -18.6050    -4.7080 c3         1 4IF      -0.073400
      3 C3           7.3650   -17.6040    -3.6480 c3         1 4IF      -0.060400
      4 C2           6.4580   -17.5530    -2.4260 c3         1 4IF      -0.208400
      5 C5           7.2150   -20.0510    -4.3320 c3         1 4IF      -0.080400
      6 C6           6.7110   -21.0660    -5.3510 c3         1 4IF      -0.072400
      7 C1           7.0130   -16.8080    -1.1960 c          1 4IF       0.924600
      8 C7           7.2480   -22.4780    -5.1330 c3         1 4IF      -0.069400
      9 C12          7.5740   -23.7760    -0.1650 c2         1 4IF      -0.140200
     10 C11          7.9420   -24.5530    -1.1830 c2         1 4IF      -0.192200
     11 C10          7.0710   -25.1260    -2.2580 c3         1 4IF      -0.035200
     12 C9           7.3530   -24.5300    -3.6410 c3         1 4IF      -0.068400
     13 C8           6.9160   -23.0760    -3.7700 c3         1 4IF      -0.080400
     14 C13          6.1920   -23.2860     0.1510 c3         1 4IF      -0.044200
     15 O1           8.2520   -16.6720    -1.1080 o          1 4IF      -0.849300
     16 C14          6.1310   -21.8690     0.7240 c3         1 4IF      -0.068400
     17 C15          6.4920   -20.7440    -0.2470 c3         1 4IF      -0.076400
     18 O2           6.1680   -16.4250    -0.3600 o          1 4IF      -0.849300
     19 C16          7.9740   -20.5450    -0.5580 c3         1 4IF      -0.077400
     20 C17          8.8280   -20.1920     0.6540 c3         1 4IF      -0.066400
     21 H1          10.8470   -19.5430     1.1400 hc         1 4IF       0.029367
     22 H2          10.7470   -20.5680    -0.2890 hc         1 4IF       0.029367
     23 H3          10.2200   -18.8880    -0.3710 hc         1 4IF       0.029367
     24 H4           7.3990   -18.3810    -5.6610 hc         1 4IF       0.016200
     25 H5           5.8330   -18.4900    -4.8910 hc         1 4IF       0.016200
     26 H6           8.3830   -17.8550    -3.3390 hc         1 4IF       0.039700
     27 H7           7.4250   -16.6050    -4.0900 hc         1 4IF       0.039700
     28 H8           5.4920   -17.1200    -2.7040 hc         1 4IF       0.015700
     29 H9           6.2260   -18.5730    -2.0960 hc         1 4IF       0.015700
     30 H10          6.7860   -20.2740    -3.3520 hc         1 4IF       0.043700
     31 H11          8.3000   -20.1600    -4.2160 hc         1 4IF       0.043700
     32 H12          6.9910   -20.7350    -6.3560 hc         1 4IF       0.028700
     33 H13          5.6160   -21.0830    -5.3340 hc         1 4IF       0.028700
     34 H14          6.8530   -23.1340    -5.9170 hc         1 4IF       0.025700
     35 H15          8.3350   -22.4730    -5.2650 hc         1 4IF       0.025700
     36 H16          8.3460   -23.4710     0.5380 ha         1 4IF       0.119000
     37 H17          8.9950   -24.8140    -1.2590 ha         1 4IF       0.109000
     38 H18          6.0120   -25.0020    -2.0190 hc         1 4IF       0.034200
     39 H19          7.2460   -26.2060    -2.3020 hc         1 4IF       0.034200
     40 H20          6.8400   -25.1300    -4.3990 hc         1 4IF       0.028700
     41 H21          8.4230   -24.6140    -3.8620 hc         1 4IF       0.028700
     42 H22          7.3900   -22.4890    -2.9780 hc         1 4IF       0.049200
     43 H23          5.8370   -23.0070    -3.5930 hc         1 4IF       0.049200
     44 H24          5.5500   -23.3460    -0.7310 hc         1 4IF       0.035200
     45 H25          5.7470   -23.9600     0.8920 hc         1 4IF       0.035200
     46 H26          6.7570   -21.8140     1.6210 hc         1 4IF       0.031700
     47 H27          5.1080   -21.7000     1.0710 hc         1 4IF       0.031700
     48 H28          6.1080   -19.8010     0.1590 hc         1 4IF       0.050700
     49 H29          5.9500   -20.9030    -1.1860 hc         1 4IF       0.050700
     50 H31          8.3860   -21.4280    -1.0540 hc         1 4IF       0.046700
     51 H32          8.0610   -19.7310    -1.2840 hc         1 4IF       0.046700
     52 H33          8.3490   -19.3780     1.2080 hc         1 4IF       0.032200
     53 H34          8.8760   -21.0400     1.3440 hc         1 4IF       0.032200
@<TRIPOS>BOND
     1     1    20 1   
     2     1    21 1   
     3     1    22 1   
     4     1    23 1   
     5     2     3 1   
     6     2     5 1   
     7     2    24 1   
     8     2    25 1   
     9     3     4 1   
    10     3    26 1   
    11     3    27 1   
    12     4     7 1   
    13     4    28 1   
    14     4    29 1   
    15     5     6 1   
    16     5    30 1   
    17     5    31 1   
    18     6     8 1   
    19     6    32 1   
    20     6    33 1   
    21     7    15 1   
    22     7    18 1   
    23     8    13 1   
    24     8    34 1   
    25     8    35 1   
    26     9    10 2   
    27     9    14 1   
    28     9    36 1   
    29    10    11 1   
    30    10    37 1   
    31    11    12 1   
    32    11    38 1   
    33    11    39 1   
    34    12    13 1   
    35    12    40 1   
    36    12    41 1   
    37    13    42 1   
    38    13    43 1   
    39    14    16 1   
    40    14    44 1   
    41    14    45 1   
    42    16    17 1   
    43    16    46 1   
    44    16    47 1   
    45    17    19 1   
    46    17    48 1   
    47    17    49 1   
    48    19    20 1   
    49    19    50 1   
    50    19    51 1   
    51    20    52 1   
    52    20    53 1   
@<TRIPOS>SUBSTRUCTURE
     1 4IF         1 TEMP              0 ****  ****    0 ROOT
