@<TRIPOS>MOLECULE
4IG
   59    62     1     0     0
SMALL
No Charge or Current Charge


@<TRIPOS>ATOM
      1 C1          -4.2780     0.8190    -1.4750 ca         1 4IG       0.432900
      2 N1          -5.5180     0.8350    -0.9810 nb         1 4IG      -0.333000
      3 C2          -5.6040     0.8670     0.3490 ca         1 4IG       0.413900
      4 N2          -4.6040     0.8830     1.2360 nb         1 4IG      -0.287000
      5 C3          -3.3520     0.8640     0.7350 ca         1 4IG       0.212300
      6 C4          -3.1200     0.8350    -0.6680 cp         1 4IG      -0.288000
      7 N3          -4.2160     0.7700    -2.8270 nv         1 4IG      -1.077900
      8 N4          -6.8550     0.8820     0.8590 nv         1 4IG      -1.052900
      9 C5          -2.2370     0.9080     1.7800 c3         1 4IG      -0.136700
     10 C6          -2.0550    -0.4310     2.5240 c3         1 4IG      -0.082100
     11 C7          -1.2870     1.9330    -2.0130 ca         1 4IG      -0.109000
     12 C8           0.0220     1.9560    -2.5210 ca         1 4IG      -0.103000
     13 C9           0.8820     0.8730    -2.2860 ca         1 4IG       0.070100
     14 C10          0.4230    -0.2830    -1.6070 ca         1 4IG      -0.073000
     15 C11         -0.8750    -0.2610    -1.0490 ca         1 4IG      -0.114000
     16 C12         -1.7470     0.8340    -1.2540 cp         1 4IG       0.002000
     17 O3           2.1890     0.9570    -2.7160 os         1 4IG      -0.322100
     18 C14          3.1780     0.2410    -1.9360 c6         1 4IG       0.134600
     19 C15          2.7140    -1.2160    -1.7220 c          1 4IG       0.546000
     20 N5           1.3580    -1.3580    -1.3460 n          1 4IG      -0.204400
     21 C16          0.8590    -2.7000    -0.9570 c3         1 4IG       0.098000
     22 C17          0.8750    -2.9100     0.5710 c3         1 4IG      -0.105400
     23 C18          0.2350    -4.2420     0.9960 c3         1 4IG       0.162600
     24 O1           0.3020    -4.3170     2.4280 os         1 4IG      -0.451000
     25 C19         -0.2700    -5.5100     2.9880 c3         1 4IG       0.146900
     26 O4           3.4680    -2.1690    -1.8930 o          1 4IG      -0.527000
     27 C20          4.1270     0.9290     1.7560 ca         1 4IG       0.200000
     28 C21          3.9070     0.2630     0.5400 ca         1 4IG      -0.153500
     29 C22          3.4320     0.9680    -0.5910 ca         1 4IG      -0.066300
     30 C23          3.2130     2.3600    -0.4700 ca         1 4IG      -0.153500
     31 C24          3.4360     3.0150     0.7510 ca         1 4IG       0.200000
     32 C25          3.8900     2.3040     1.8680 ca         1 4IG      -0.191000
     33 F1           3.2140     4.3440     0.8490 f          1 4IG      -0.169000
     34 HN31        -5.0550     0.9910    -3.3570 hn         1 4IG       0.495500
     35 HN32        -3.3210     0.9390    -3.2750 hn         1 4IG       0.495500
     36 HN41        -6.9730     0.6780     1.8480 hn         1 4IG       0.488000
     37 HN42        -7.6300     0.6450     0.2460 hn         1 4IG       0.488000
     38 H51         -2.4540     1.6920     2.5170 hc         1 4IG       0.060200
     39 H52         -1.2830     1.1930     1.3230 hc         1 4IG       0.060200
     40 H61         -1.2100    -0.3720     3.2200 hc         1 4IG       0.037367
     41 H62         -2.9550    -0.6810     3.1000 hc         1 4IG       0.037367
     42 H63         -1.8640    -1.2490     1.8200 hc         1 4IG       0.037367
     43 H7          -1.9400     2.7870    -2.1760 ha         1 4IG       0.126000
     44 H8           0.3810     2.8250    -3.0660 ha         1 4IG       0.132000
     45 H11         -1.2400    -1.0960    -0.4610 ha         1 4IG       0.130000
     46 H14          4.1160     0.1990    -2.5060 h1         1 4IG       0.123700
     47 H161        -0.1620    -2.8280    -1.3370 h1         1 4IG       0.064200
     48 H162         1.4630    -3.4830    -1.4350 h1         1 4IG       0.064200
     49 H171         1.9120    -2.8770     0.9260 hc         1 4IG       0.064700
     50 H172         0.3430    -2.0850     1.0590 hc         1 4IG       0.064700
     51 H181        -0.8080    -4.2750     0.6540 h1         1 4IG       0.020700
     52 H182         0.7810    -5.0770     0.5360 h1         1 4IG       0.020700
     53 H191         0.2470    -6.4040     2.6150 h1         1 4IG       0.029367
     54 H192        -0.1830    -5.4970     4.0820 h1         1 4IG       0.029367
     55 H193        -1.3340    -5.5910     2.7310 h1         1 4IG       0.029367
     56 H21          4.1130    -0.8040     0.4910 ha         1 4IG       0.149000
     57 H23          2.8670     2.9440    -1.3180 ha         1 4IG       0.149000
     58 H25          4.0620     2.8150     2.8110 ha         1 4IG       0.153000
     59 F2           4.5740     0.2380     2.8270 f          1 4IG      -0.169000
@<TRIPOS>BOND
     1     1     2 ar  
     2     1     6 ar  
     3     1     7 1   
     4     2     3 ar  
     5     3     4 ar  
     6     3     8 1   
     7     4     5 ar  
     8     5     6 ar  
     9     5     9 1   
    10     6    16 1   
    11     7    34 1   
    12     7    35 1   
    13     8    36 1   
    14     8    37 1   
    15     9    10 1   
    16     9    38 1   
    17     9    39 1   
    18    10    40 1   
    19    10    41 1   
    20    10    42 1   
    21    11    12 ar  
    22    11    16 ar  
    23    11    43 1   
    24    12    13 ar  
    25    12    44 1   
    26    13    14 ar  
    27    13    17 1   
    28    14    15 ar  
    29    14    20 1   
    30    15    16 ar  
    31    15    45 1   
    32    17    18 1   
    33    18    19 1   
    34    18    29 1   
    35    18    46 1   
    36    19    20 1   
    37    19    26 2   
    38    20    21 1   
    39    21    22 1   
    40    21    47 1   
    41    21    48 1   
    42    22    23 1   
    43    22    49 1   
    44    22    50 1   
    45    23    24 1   
    46    23    51 1   
    47    23    52 1   
    48    24    25 1   
    49    25    53 1   
    50    25    54 1   
    51    25    55 1   
    52    27    28 ar  
    53    27    32 ar  
    54    27    59 1   
    55    28    29 ar  
    56    28    56 1   
    57    29    30 ar  
    58    30    31 ar  
    59    30    57 1   
    60    31    32 ar  
    61    31    33 1   
    62    32    58 1   
@<TRIPOS>SUBSTRUCTURE
     1 4IG         1 TEMP              0 ****  ****    0 ROOT
