@<TRIPOS>MOLECULE
4IG
   59    62     1     0     0
SMALL
bcc


@<TRIPOS>ATOM
      1 C1          -4.1740     0.5330    -1.4030 ca         1 4IG       0.761200
      2 N1          -5.4170     0.4910    -0.9340 nb         1 4IG      -0.859000
      3 C2          -5.5810     0.7550     0.3610 ca         1 4IG       0.939900
      4 N2          -4.6210     1.0590     1.2310 nb         1 4IG      -0.813000
      5 C3          -3.3740     1.1060     0.7550 ca         1 4IG       0.540600
      6 C4          -3.0740     0.8510    -0.5720 cp         1 4IG      -0.418600
      7 N3          -4.0000     0.2280    -2.7010 nv         1 4IG      -0.967500
      8 N4          -6.8540     0.7500     0.8260 nv         1 4IG      -0.942500
      9 C5          -2.3080     1.4230     1.7640 c3         1 4IG      -0.136700
     10 C6          -1.9070     0.1900     2.5710 c3         1 4IG      -0.082100
     11 C7          -1.2140     1.9740    -1.8100 ca         1 4IG      -0.127000
     12 C8           0.0810     1.9810    -2.3080 ca         1 4IG      -0.121000
     13 C9           0.8890     0.8740    -2.1320 ca         1 4IG       0.070100
     14 C10          0.4210    -0.2550    -1.4590 ca         1 4IG       0.019600
     15 C11         -0.8720    -0.2410    -0.9520 ca         1 4IG      -0.132000
     16 C12         -1.6970     0.8700    -1.1140 cp         1 4IG       0.002000
     17 O3           2.1510     0.8720    -2.6360 os         1 4IG      -0.298900
     18 C14          3.0730     0.1750    -1.8290 c6         1 4IG       0.111400
     19 C15          2.5950    -1.2470    -1.5750 c          1 4IG       0.688500
     20 N5           1.2610    -1.3760    -1.3760 n          1 4IG      -0.364000
     21 C16          0.7290    -2.6830    -1.0120 c3         1 4IG       0.098000
     22 C17          0.7930    -2.9400     0.4890 c3         1 4IG      -0.105400
     23 C18          0.1780    -4.2820     0.8340 c3         1 4IG       0.139400
     24 O1           0.2790    -4.4860     2.2200 os         1 4IG      -0.404600
     25 C19         -0.2680    -5.7140     2.6270 c3         1 4IG       0.123700
     26 O4           3.3780    -2.1760    -1.5260 o          1 4IG      -0.602500
     27 C20          4.0340     0.9370     1.7590 ca         1 4IG       0.164900
     28 C21          3.7600     0.2210     0.6100 ca         1 4IG      -0.171500
     29 C22          3.3540     0.9100    -0.5270 ca         1 4IG      -0.066300
     30 C23          3.2450     2.2970    -0.4980 ca         1 4IG      -0.171500
     31 C24          3.5300     2.9600     0.6790 ca         1 4IG       0.164900
     32 C25          3.9270     2.3110     1.8320 ca         1 4IG      -0.209000
     33 F1           3.4190     4.2930     0.7080 f          1 4IG      -0.133900
     34 HN31        -4.8080     0.1310    -3.2910 hn         1 4IG       0.440300
     35 HN32        -3.1150     0.3770    -3.1530 hn         1 4IG       0.440300
     36 HN41        -6.9870     0.7110     1.8220 hn         1 4IG       0.432800
     37 HN42        -7.5590     0.3060     0.2650 hn         1 4IG       0.432800
     38 H51         -2.6960     2.1860     2.4410 hc         1 4IG       0.060200
     39 H52         -1.4290     1.8420     1.2730 hc         1 4IG       0.060200
     40 H61         -1.2050     0.4590     3.3600 hc         1 4IG       0.037367
     41 H62         -2.7760    -0.2750     3.0370 hc         1 4IG       0.037367
     42 H63         -1.4250    -0.5580     1.9400 hc         1 4IG       0.037367
     43 H7          -1.8430     2.8450    -1.9430 ha         1 4IG       0.144000
     44 H8           0.4670     2.8430    -2.8360 ha         1 4IG       0.150000
     45 H11         -1.2680    -1.1010    -0.4290 ha         1 4IG       0.148000
     46 H14          3.9940     0.1120    -2.4120 h1         1 4IG       0.123700
     47 H161        -0.2950    -2.7510    -1.3810 h1         1 4IG       0.064200
     48 H162         1.2980    -3.4410    -1.5490 h1         1 4IG       0.064200
     49 H171         1.8350    -2.9170     0.8180 hc         1 4IG       0.064700
     50 H172         0.2680    -2.1490     1.0320 hc         1 4IG       0.064700
     51 H181        -0.8730    -4.3060     0.5120 h1         1 4IG       0.020700
     52 H182         0.6940    -5.0840     0.2850 h1         1 4IG       0.020700
     53 H191         0.2370    -6.5660     2.1570 h1         1 4IG       0.029367
     54 H192        -0.1480    -5.7960     3.7060 h1         1 4IG       0.029367
     55 H193        -1.3370    -5.7870     2.3920 h1         1 4IG       0.029367
     56 H21          3.8780    -0.8550     0.6210 ha         1 4IG       0.167000
     57 H23          2.9470     2.8630    -1.3700 ha         1 4IG       0.167000
     58 H25          4.1450     2.8520     2.7430 ha         1 4IG       0.171000
     59 F2           4.4180     0.2700     2.8530 f          1 4IG      -0.133900
@<TRIPOS>BOND
     1     1     2 ar  
     2     1     6 ar  
     3     1     7 1   
     4     2     3 ar  
     5     3     4 ar  
     6     3     8 1   
     7     4     5 ar  
     8     5     6 ar  
     9     5     9 1   
    10     6    16 1   
    11     7    34 1   
    12     7    35 1   
    13     8    36 1   
    14     8    37 1   
    15     9    10 1   
    16     9    38 1   
    17     9    39 1   
    18    10    40 1   
    19    10    41 1   
    20    10    42 1   
    21    11    12 ar  
    22    11    16 ar  
    23    11    43 1   
    24    12    13 ar  
    25    12    44 1   
    26    13    14 ar  
    27    13    17 1   
    28    14    15 ar  
    29    14    20 1   
    30    15    16 ar  
    31    15    45 1   
    32    17    18 1   
    33    18    19 1   
    34    18    29 1   
    35    18    46 1   
    36    19    20 1   
    37    19    26 2   
    38    20    21 1   
    39    21    22 1   
    40    21    47 1   
    41    21    48 1   
    42    22    23 1   
    43    22    49 1   
    44    22    50 1   
    45    23    24 1   
    46    23    51 1   
    47    23    52 1   
    48    24    25 1   
    49    25    53 1   
    50    25    54 1   
    51    25    55 1   
    52    27    28 ar  
    53    27    32 ar  
    54    27    59 1   
    55    28    29 ar  
    56    28    56 1   
    57    29    30 ar  
    58    30    31 ar  
    59    30    57 1   
    60    31    32 ar  
    61    31    33 1   
    62    32    58 1   
@<TRIPOS>SUBSTRUCTURE
     1 4IG         1 TEMP              0 ****  ****    0 ROOT
