@<TRIPOS>MOLECULE
4IH
   44    45     1     0     0
SMALL
No Charge or Current Charge


@<TRIPOS>ATOM
      1 C1           4.9080     0.1510     0.4590 c3         1 4IH       0.200800
      2 C3           2.4790     0.2090     1.2670 c3         1 4IH       0.158800
      3 C4           0.0750     0.2680     1.8980 c3         1 4IH       0.205100
      4 C5          -1.3290     0.0620     1.3460 ca         1 4IH      -0.082300
      5 C6          -2.0440    -1.1160     1.6280 ca         1 4IH      -0.110000
      6 C8          -3.9570    -0.3090     0.3110 cp         1 4IH      -0.023000
      7 C9          -3.2190     0.8720     0.0230 ca         1 4IH       0.127000
      8 C10         -1.9230     1.0490     0.5380 ca         1 4IH      -0.084000
      9 C11         -5.3390    -0.5440    -0.2100 cp         1 4IH      -0.041000
     10 C12         -5.6520    -1.7380    -0.9030 ca         1 4IH      -0.089500
     11 C13         -6.9510    -1.9780    -1.3840 ca         1 4IH      -0.113000
     12 C14         -7.9640    -1.0290    -1.1710 ca         1 4IH      -0.103000
     13 C15         -7.6780     0.1570    -0.4750 ca         1 4IH      -0.113000
     14 C16         -6.3780     0.3950     0.0040 ca         1 4IH      -0.089500
     15 Cl          -3.8600     2.1400    -1.0250 cl         1 4IH      -0.199000
     16 C7          -3.3390    -1.2980     1.1150 ca         1 4IH      -0.097000
     17 N1           1.0780     0.0590     0.8400 n7         1 4IH      -0.857400
     18 C2           3.4260    -0.0060     0.0710 c3         1 4IH      -0.083400
     19 N            5.7580    -0.0420    -0.7280 n7         1 4IH      -0.866300
     20 S            7.4130     0.0690    -0.5630 s6         1 4IH       1.192100
     21 O            7.9640    -0.1050    -1.9080 o          1 4IH      -0.526000
     22 O1           7.6820     1.2930     0.1940 o          1 4IH      -0.526000
     23 C            7.8040    -1.3540     0.4380 c3         1 4IH      -0.388100
     24 H1           5.0560     1.1560     0.8780 h1         1 4IH       0.049700
     25 H2           5.1490    -0.5790     1.2440 h1         1 4IH       0.049700
     26 H3           2.6460     1.2140     1.6790 h1         1 4IH       0.029700
     27 H4           2.7200    -0.5210     2.0520 h1         1 4IH       0.029700
     28 H5           0.1520     1.2850     2.3050 h1         1 4IH       0.039200
     29 H6           0.2430    -0.4300     2.7300 h1         1 4IH       0.039200
     30 H7          -1.5980    -1.8920     2.2470 ha         1 4IH       0.114000
     31 H8          -1.3720     1.9550     0.3000 ha         1 4IH       0.146000
     32 H9          -4.8750    -2.4800    -1.0760 ha         1 4IH       0.117000
     33 H10         -7.1710    -2.8980    -1.9190 ha         1 4IH       0.113500
     34 H11         -8.9700    -1.2140    -1.5420 ha         1 4IH       0.113000
     35 H12         -8.4640     0.8900    -0.3030 ha         1 4IH       0.113500
     36 H13         -6.1750     1.3100     0.5550 ha         1 4IH       0.117000
     37 H14         -3.8790    -2.2130     1.3500 ha         1 4IH       0.121000
     38 H15          0.9500    -0.8920     0.4740 hn         1 4IH       0.412000
     39 H17          3.1830     0.7190    -0.7160 hc         1 4IH       0.060700
     40 H18          3.2640    -1.0070    -0.3450 hc         1 4IH       0.060700
     41 H19          5.6610    -1.0040    -1.0470 hn         1 4IH       0.479000
     42 H20          7.4530    -2.2490    -0.0850 h1         1 4IH       0.100700
     43 H21          8.8920    -1.3740     0.5560 h1         1 4IH       0.100700
     44 H22          7.3130    -1.2350     1.4090 h1         1 4IH       0.100700
@<TRIPOS>BOND
     1     1    18 1   
     2     1    19 1   
     3     1    24 1   
     4     1    25 1   
     5     2    17 1   
     6     2    18 1   
     7     2    26 1   
     8     2    27 1   
     9     3     4 1   
    10     3    17 1   
    11     3    28 1   
    12     3    29 1   
    13     4     5 ar  
    14     4     8 ar  
    15     5    16 ar  
    16     5    30 1   
    17     6     7 ar  
    18     6     9 1   
    19     6    16 ar  
    20     7     8 ar  
    21     7    15 1   
    22     8    31 1   
    23     9    10 ar  
    24     9    14 ar  
    25    10    11 ar  
    26    10    32 1   
    27    11    12 ar  
    28    11    33 1   
    29    12    13 ar  
    30    12    34 1   
    31    13    14 ar  
    32    13    35 1   
    33    14    36 1   
    34    16    37 1   
    35    17    38 1   
    36    18    39 1   
    37    18    40 1   
    38    19    20 1   
    39    19    41 1   
    40    20    21 2   
    41    20    22 2   
    42    20    23 1   
    43    23    42 1   
    44    23    43 1   
    45    23    44 1   
@<TRIPOS>SUBSTRUCTURE
     1 4IH         1 TEMP              0 ****  ****    0 ROOT
