@<TRIPOS>MOLECULE
4IH
   44    45     1     0     0
SMALL
abcg2


@<TRIPOS>ATOM
      1 C1           4.8580     0.0140     0.4630 c3         1 4IH       0.200800
      2 C3           2.4370    -0.1810     1.0780 c3         1 4IH       0.158800
      3 C4           0.1110    -0.3850     1.6570 c3         1 4IH       0.205100
      4 C5          -1.3050    -0.4220     1.1460 ca         1 4IH      -0.082300
      5 C6          -2.2600    -1.2260     1.7560 ca         1 4IH      -0.110000
      6 C8          -3.9860    -0.4220     0.2500 cp         1 4IH      -0.023000
      7 C9          -3.0090     0.3640    -0.3610 ca         1 4IH       0.127000
      8 C10         -1.6920     0.3690     0.0700 ca         1 4IH      -0.084000
      9 C11         -5.4020    -0.4490    -0.1750 cp         1 4IH      -0.041000
     10 C12         -5.9940    -1.6570    -0.5390 ca         1 4IH      -0.089500
     11 C13         -7.3350    -1.7090    -0.8960 ca         1 4IH      -0.113000
     12 C14         -8.1020    -0.5520    -0.8880 ca         1 4IH      -0.103000
     13 C15         -7.5210     0.6560    -0.5230 ca         1 4IH      -0.113000
     14 C16         -6.1810     0.7080    -0.1700 ca         1 4IH      -0.089500
     15 CL          -3.4110     1.3470    -1.7360 cl         1 4IH      -0.199000
     16 C7          -3.5730    -1.2210     1.3150 ca         1 4IH      -0.097000
     17 N1           1.0800    -0.3130     0.5850 n7         1 4IH      -0.857400
     18 C2           3.4390    -0.1400    -0.0630 c3         1 4IH      -0.083400
     19 N            5.8040     0.0040    -0.6500 n7         1 4IH      -0.866300
     20 S            7.3550     0.4950    -0.4020 s6         1 4IH       1.192100
     21 O            8.0420     0.3480    -1.6770 o          1 4IH      -0.526000
     22 O1           7.2960     1.8060     0.2280 o          1 4IH      -0.526000
     23 C            8.0910    -0.6360     0.7570 c3         1 4IH      -0.388100
     24 H1           4.9500     0.9650     0.9870 h1         1 4IH       0.049700
     25 H2           5.0720    -0.7820     1.1840 h1         1 4IH       0.049700
     26 H3           2.5000     0.7480     1.6530 h1         1 4IH       0.029700
     27 H4           2.7100    -0.9900     1.7760 h1         1 4IH       0.029700
     28 H5           0.2340     0.5080     2.2800 h1         1 4IH       0.039200
     29 H6           0.2680    -1.2420     2.3300 h1         1 4IH       0.039200
     30 H7          -1.9800    -1.8590     2.5890 ha         1 4IH       0.114000
     31 H8          -0.9590     0.9840    -0.4340 ha         1 4IH       0.146000
     32 H9          -5.3990    -2.5620    -0.5520 ha         1 4IH       0.117000
     33 H10         -7.7790    -2.6540    -1.1810 ha         1 4IH       0.113500
     34 H11         -9.1490    -0.5910    -1.1630 ha         1 4IH       0.113000
     35 H12         -8.1160     1.5600    -0.5080 ha         1 4IH       0.113500
     36 H13         -5.7420     1.6520     0.1270 ha         1 4IH       0.117000
     37 H14         -4.3040    -1.8470     1.8120 ha         1 4IH       0.121000
     38 H15          1.0120    -1.1560     0.0250 hn         1 4IH       0.412000
     39 H17          3.2060     0.6880    -0.7360 hc         1 4IH       0.060700
     40 H18          3.3650    -1.0630    -0.6490 hc         1 4IH       0.060700
     41 H19          5.7650    -0.8400    -1.2120 hn         1 4IH       0.479000
     42 H20          8.1040    -1.6330     0.3230 h1         1 4IH       0.100700
     43 H21          9.1090    -0.3010     0.9520 h1         1 4IH       0.100700
     44 H22          7.5230    -0.6370     1.6850 h1         1 4IH       0.100700
@<TRIPOS>BOND
     1     1    18 1   
     2     1    19 1   
     3     1    24 1   
     4     1    25 1   
     5     2    17 1   
     6     2    18 1   
     7     2    26 1   
     8     2    27 1   
     9     3     4 1   
    10     3    17 1   
    11     3    28 1   
    12     3    29 1   
    13     4     5 ar  
    14     4     8 ar  
    15     5    16 ar  
    16     5    30 1   
    17     6     7 ar  
    18     6     9 1   
    19     6    16 ar  
    20     7     8 ar  
    21     7    15 1   
    22     8    31 1   
    23     9    10 ar  
    24     9    14 ar  
    25    10    11 ar  
    26    10    32 1   
    27    11    12 ar  
    28    11    33 1   
    29    12    13 ar  
    30    12    34 1   
    31    13    14 ar  
    32    13    35 1   
    33    14    36 1   
    34    16    37 1   
    35    17    38 1   
    36    18    39 1   
    37    18    40 1   
    38    19    20 1   
    39    19    41 1   
    40    20    21 2   
    41    20    22 2   
    42    20    23 1   
    43    23    42 1   
    44    23    43 1   
    45    23    44 1   
@<TRIPOS>SUBSTRUCTURE
     1 4IH         1 TEMP              0 ****  ****    0 ROOT
