@<TRIPOS>MOLECULE
4II
   24    24     1     0     0
SMALL
bcc


@<TRIPOS>ATOM
      1 N1          28.4380     0.6610    50.8700 n2         1 4II      -0.304600
      2 N2          28.4240     0.5410    49.6550 n1         1 4II       0.238000
      3 N3          28.3040     0.4820    48.5410 n1         1 4II      -0.101000
      4 C           32.7250    -3.5160    53.3060 c          1 4II       0.926600
      5 O           31.6770    -4.1560    53.0910 o          1 4II      -0.827800
      6 CA          32.7060    -2.5350    54.5060 c3         1 4II       0.021500
      7 N           33.8060    -2.8340    55.4190 n8         1 4II      -0.861800
      8 CG          31.7310    -0.6220    53.1660 ca         1 4II      -0.040300
      9 CD2         30.6070    -0.0250    53.7340 ca         1 4II      -0.098500
     10 CE2         29.5360     0.3880    52.9580 ca         1 4II      -0.149000
     11 CZ          29.5680     0.2100    51.5790 ca         1 4II       0.056600
     12 CE1         30.6810    -0.3840    50.9900 ca         1 4II      -0.149000
     13 CD1         31.7430    -0.7920    51.7830 ca         1 4II      -0.098500
     14 H2          31.7240    -2.6140    54.9950 h1         1 4II       0.005700
     15 H3          33.7090    -2.2600    56.2490 hn         1 4II       0.308300
     16 H4          33.7280    -3.7890    55.7450 hn         1 4II       0.308300
     17 H8          30.5690     0.1270    54.8060 ha         1 4II       0.141500
     18 H9          28.6730     0.8530    53.4160 ha         1 4II       0.124000
     19 H10         30.7350    -0.5350    49.9180 ha         1 4II       0.124000
     20 H11         32.6000    -1.2580    51.3130 ha         1 4II       0.141500
     21 CB          32.8710    -1.0890    54.0220 c3         1 4II      -0.019100
     22 OXT         33.7850    -3.5750    52.6530 o          1 4II      -0.827800
     23 H6          33.8130    -1.0150    53.4760 hc         1 4II       0.039700
     24 H7          32.9530    -0.4340    54.8950 hc         1 4II       0.039700
@<TRIPOS>BOND
     1     1     2 1   
     2     1    11 1   
     3     2     3 3   
     4     4     5 1   
     5     4     6 1   
     6     4    22 1   
     7     6     7 1   
     8     6    14 1   
     9     6    21 1   
    10     7    15 1   
    11     7    16 1   
    12     8     9 ar  
    13     8    13 ar  
    14     8    21 1   
    15     9    10 ar  
    16     9    17 1   
    17    10    11 ar  
    18    10    18 1   
    19    11    12 ar  
    20    12    13 ar  
    21    12    19 1   
    22    13    20 1   
    23    21    23 1   
    24    21    24 1   
@<TRIPOS>SUBSTRUCTURE
     1 4II         1 TEMP              0 ****  ****    0 ROOT
