@<TRIPOS>MOLECULE
4II
   24    24     1     0     0
SMALL
No Charge or Current Charge


@<TRIPOS>ATOM
      1 N1          28.4680     0.1230    50.5320 n2         1 4II      -0.443000
      2 N2          28.3600     1.2740    50.0820 n1         1 4II       0.238000
      3 N3          28.1330     2.2890    49.6200 n1         1 4II      -0.101000
      4 C           32.6330    -3.6920    53.6380 c          1 4II       0.716000
      5 O           31.7140    -4.4720    53.8550 o          1 4II      -0.722500
      6 CA          32.7860    -2.4360    54.5990 c3         1 4II       0.021500
      7 N           33.8320    -2.5450    55.6800 n8         1 4II      -0.972200
      8 CG          31.7700    -0.7890    52.9210 ca         1 4II      -0.040300
      9 CD2         30.5830    -0.3050    53.5040 ca         1 4II      -0.080500
     10 CE2         29.4710     0.0020    52.6990 ca         1 4II      -0.131000
     11 CZ          29.5370    -0.1700    51.3050 ca         1 4II       0.195000
     12 CE1         30.7200    -0.6560    50.7210 ca         1 4II      -0.131000
     13 CD1         31.8330    -0.9630    51.5240 ca         1 4II      -0.080500
     14 H2          31.8310    -2.3430    55.1350 h1         1 4II       0.005700
     15 H3          33.7560    -1.7380    56.3100 hn         1 4II       0.363500
     16 H4          33.6140    -3.3500    56.2800 hn         1 4II       0.363500
     17 H8          30.5210    -0.1660    54.5810 ha         1 4II       0.123500
     18 H9          28.5580     0.3740    53.1570 ha         1 4II       0.106000
     19 H10         30.7770    -0.7950    49.6440 ha         1 4II       0.106000
     20 H11         32.7420    -1.3390    51.0600 ha         1 4II       0.123500
     21 CB          32.9740    -1.1210    53.7970 c3         1 4II      -0.019100
     22 OXT         33.4640    -3.8740    52.7550 o          1 4II      -0.722500
     23 H6          33.8870    -1.1870    53.1910 hc         1 4II       0.039700
     24 H7          33.1400    -0.2920    54.4970 hc         1 4II       0.039700
@<TRIPOS>BOND
     1     1     2 1   
     2     1    11 1   
     3     2     3 3   
     4     4     5 1   
     5     4     6 1   
     6     4    22 1   
     7     6     7 1   
     8     6    14 1   
     9     6    21 1   
    10     7    15 1   
    11     7    16 1   
    12     8     9 ar  
    13     8    13 ar  
    14     8    21 1   
    15     9    10 ar  
    16     9    17 1   
    17    10    11 ar  
    18    10    18 1   
    19    11    12 ar  
    20    12    13 ar  
    21    12    19 1   
    22    13    20 1   
    23    21    23 1   
    24    21    24 1   
@<TRIPOS>SUBSTRUCTURE
     1 4II         1 TEMP              0 ****  ****    0 ROOT
