@<TRIPOS>MOLECULE
4IK
   52    54     1     0     0
SMALL
bcc


@<TRIPOS>ATOM
      1 C          -15.3830    35.1030    88.9840 c          1 4IK       0.925600
      2 N          -17.3040    34.1240    90.2210 n8         1 4IK      -0.858800
      3 O          -16.1670    35.5680    88.1330 o          1 4IK      -0.833800
      4 N1         -17.1500    23.1690    93.1820 nb         1 4IK      -0.833000
      5 C2         -16.4200    24.1090    93.7760 ca         1 4IK       0.700900
      6 N3         -15.8720    25.1850    93.2410 nb         1 4IK      -0.736000
      7 C4         -16.1330    25.2750    91.9390 ca         1 4IK       0.457800
      8 C5         -16.8770    24.3810    91.1840 ca         1 4IK      -0.229200
      9 C6         -17.4020    23.2710    91.8720 ca         1 4IK       0.771200
     10 N6         -18.1160    22.3180    91.2680 nv         1 4IK      -0.954500
     11 N7         -16.9490    24.7880    89.8770 nc         1 4IK      -0.565100
     12 C8         -16.2630    25.8910    89.8440 cd         1 4IK       0.418700
     13 N9         -15.7410    26.2430    91.0600 na         1 4IK      -0.258000
     14 CA         -15.9000    33.9370    89.8620 c3         1 4IK       0.021500
     15 CB         -15.7790    32.6060    89.1150 c3         1 4IK      -0.050400
     16 O3         -12.8410    29.3570    91.8910 oh         1 4IK      -0.580800
     17 O2         -12.5750    26.6840    91.3410 oh         1 4IK      -0.584800
     18 CE         -14.3670    30.7890    86.6710 c3         1 4IK       0.158800
     19 CG         -14.3440    32.1690    88.8460 c3         1 4IK      -0.062400
     20 C10        -14.9310    29.6570    88.8510 c3         1 4IK      -0.090400
     21 O4         -15.5800    28.5470    90.9010 os         1 4IK      -0.404600
     22 CD         -14.1470    30.7930    88.1850 c3         1 4IK      -0.046700
     23 C3         -13.2580    28.8900    90.6320 c5         1 4IK       0.128100
     24 C7         -13.5630    27.3960    90.6640 c5         1 4IK       0.059100
     25 C9         -14.6370    29.4730    90.3330 c5         1 4IK       0.143100
     26 C1         -14.9300    27.3980    91.3580 c5         1 4IK       0.227800
     27 OXT        -14.2040    35.4650    89.1860 o          1 4IK      -0.833800
     28 H          -17.5620    33.4140    90.8960 hn         1 4IK       0.305800
     29 H2         -17.4190    35.0080    90.7020 hn         1 4IK       0.305800
     30 H62        -18.5590    21.6020    91.8190 hn         1 4IK       0.445800
     31 H61        -18.4170    22.4300    90.3150 hn         1 4IK       0.445800
     32 H8         -16.1090    26.5000    88.9650 h5         1 4IK       0.073800
     33 HA         -15.2500    33.8830    90.7500 h1         1 4IK      -0.004300
     34 HB2        -16.2840    31.8430    89.7210 hc         1 4IK       0.033700
     35 HB3        -16.3360    32.6650    88.1790 hc         1 4IK       0.033700
     36 HZ2        -15.7870    31.0700    85.2550 hn         1 4IK       0.326300
     37 HZ3        -16.3180    30.2270    86.5190 hn         1 4IK       0.326300
     38 HO3        -12.0390    28.8860    92.1430 ho         1 4IK       0.419000
     39 HO2        -12.7050    25.7410    91.1940 ho         1 4IK       0.419000
     40 HE3        -13.9600    29.8430    86.2790 h1         1 4IK       0.017700
     41 HE2        -13.7520    31.5840    86.2400 h1         1 4IK       0.017700
     42 HG2        -13.8410    32.9120    88.2210 hc         1 4IK       0.052200
     43 HG3        -13.7950    32.1770    89.7940 hc         1 4IK       0.052200
     44 H5'        -16.0060    29.8290    88.7470 hc         1 4IK       0.043200
     45 H5         -14.7200    28.7220    88.3170 hc         1 4IK       0.043200
     46 HD         -13.0810    30.5610    88.2960 hc         1 4IK       0.020700
     47 H3         -12.5300    29.1370    89.8500 h1         1 4IK       0.066700
     48 H7         -13.6840    27.0410    89.6320 h1         1 4IK       0.046700
     49 H4         -14.7570    30.4260    90.8580 h1         1 4IK       0.118700
     50 H1         -14.7960    27.4040    92.4450 h2         1 4IK       0.113700
     51 NZ         -15.7450    31.0210    86.2650 n8         1 4IK      -0.857800
     52 H2A        -16.2540    23.9670    94.8390 h5         1 4IK       0.043100
@<TRIPOS>BOND
     1     1     3 1   
     2     1    14 1   
     3     1    27 1   
     4     2    14 1   
     5     2    28 1   
     6     2    29 1   
     7     4     5 ar  
     8     4     9 ar  
     9     5     6 ar  
    10     5    52 1   
    11     6     7 ar  
    12     7     8 ar  
    13     7    13 1   
    14     8     9 ar  
    15     8    11 1   
    16     9    10 1   
    17    10    30 1   
    18    10    31 1   
    19    11    12 2   
    20    12    13 1   
    21    12    32 1   
    22    13    26 1   
    23    14    15 1   
    24    14    33 1   
    25    15    19 1   
    26    15    34 1   
    27    15    35 1   
    28    16    23 1   
    29    16    38 1   
    30    17    24 1   
    31    17    39 1   
    32    18    22 1   
    33    18    40 1   
    34    18    41 1   
    35    18    51 1   
    36    19    22 1   
    37    19    42 1   
    38    19    43 1   
    39    20    22 1   
    40    20    25 1   
    41    20    44 1   
    42    20    45 1   
    43    21    25 1   
    44    21    26 1   
    45    22    46 1   
    46    23    24 1   
    47    23    25 1   
    48    23    47 1   
    49    24    26 1   
    50    24    48 1   
    51    25    49 1   
    52    26    50 1   
    53    36    51 1   
    54    37    51 1   
@<TRIPOS>SUBSTRUCTURE
     1 4IK         1 TEMP              0 ****  ****    0 ROOT
