@<TRIPOS>MOLECULE
4IL
   66    70     1     0     0
SMALL
bcc


@<TRIPOS>ATOM
      1 C19        -24.3720   -17.8040    45.2120 c3         1 4IL      -0.064900
      2 C20        -24.9680   -15.3700    45.4480 c3         1 4IL      -0.064900
      3 C22        -24.0960   -17.3890    41.1000 c          1 4IL       0.717500
      4 C24        -23.5640   -16.6850    39.8650 c5         1 4IL       0.033700
      5 C26        -22.3590   -14.7900    39.0750 c5         1 4IL      -0.098400
      6 C33        -27.7490   -17.3050    40.1390 c          1 4IL       0.618300
      7 C01        -34.2340   -19.0210    43.4610 c3         1 4IL       0.127700
      8 C03        -31.8870   -18.6980    43.2670 ca         1 4IL       0.152100
      9 C04        -31.9970   -18.2780    41.9310 ca         1 4IL      -0.223000
     10 C05        -30.8730   -17.9190    41.2030 ca         1 4IL      -0.039000
     11 C06        -29.6220   -17.9770    41.8050 ca         1 4IL      -0.071800
     12 C07        -29.5370   -18.4060    43.1390 ca         1 4IL      -0.021200
     13 C08        -30.6440   -18.7660    43.8890 ca         1 4IL      -0.182000
     14 C11        -27.9520   -17.6230    45.8160 c2         1 4IL      -0.201200
     15 C12        -27.9080   -17.7250    47.1440 c2         1 4IL      -0.097400
     16 C13        -28.0950   -16.5200    48.0160 c3         1 4IL      -0.060900
     17 C14        -27.6490   -19.0060    47.8780 c3         1 4IL      -0.060900
     18 C15        -27.4590   -17.9740    42.4730 cc         1 4IL       0.006700
     19 C16        -25.9890   -17.7610    42.5400 c6         1 4IL       0.230100
     20 C17        -25.7300   -16.6000    43.4660 c2         1 4IL      -0.222200
     21 C18        -25.0560   -16.6140    44.6170 c2         1 4IL      -0.060400
     22 C25        -22.2860   -15.8890    40.1280 c5         1 4IL      -0.079400
     23 C27        -23.8340   -14.4080    39.0670 c5         1 4IL       0.099000
     24 C29        -25.8160   -15.7770    39.5440 c          1 4IL       0.676500
     25 C31        -26.2210   -17.1940    40.0060 c6         1 4IL       0.164200
     26 C35        -28.2720   -17.6940    41.3990 cd         1 4IL      -0.231400
     27 N09        -28.2040   -18.4050    43.5140 na         1 4IL      -0.038400
     28 N21        -25.4560   -17.4620    41.2070 n          1 4IL      -0.479800
     29 N28        -24.4950   -15.6680    39.3890 n          1 4IL      -0.468800
     30 O23        -23.3460   -17.8220    41.9500 o          1 4IL      -0.611500
     31 O30        -26.6090   -14.8680    39.3730 o          1 4IL      -0.597500
     32 O32        -25.8250   -18.1610    39.0670 oh         1 4IL      -0.601800
     33 O34        -28.4080   -17.1410    39.1290 o          1 4IL      -0.517100
     34 H1         -23.3420   -17.5520    45.4700 hc         1 4IL       0.045533
     35 H2         -24.8670   -18.0860    46.1450 hc         1 4IL       0.045533
     36 H3         -24.3460   -18.6760    44.5630 hc         1 4IL       0.045533
     37 H4         -25.4160   -15.5410    46.4310 hc         1 4IL       0.045533
     38 H5         -23.9260   -15.0910    45.6230 hc         1 4IL       0.045533
     39 H6         -25.4770   -14.5260    44.9860 hc         1 4IL       0.045533
     40 H7         -23.3780   -17.4370    39.0900 h1         1 4IL       0.094700
     41 H8         -22.0650   -15.1790    38.0980 hc         1 4IL       0.057200
     42 H9         -21.7170   -13.9410    39.3040 hc         1 4IL       0.057200
     43 H10        -34.9200   -19.3480    44.2390 h1         1 4IL       0.040367
     44 H11        -34.5170   -18.0130    43.1460 h1         1 4IL       0.040367
     45 H12        -34.3280   -19.6950    42.6060 h1         1 4IL       0.040367
     46 H13        -32.9620   -18.2260    41.4460 ha         1 4IL       0.137000
     47 H14        -30.9840   -17.6000    40.1760 ha         1 4IL       0.153000
     48 H15        -30.5670   -19.0850    44.9210 ha         1 4IL       0.151000
     49 H16        -28.2810   -19.6540    45.1500 h1         1 4IL       0.069200
     50 H17        -26.6980   -19.0430    44.7770 h1         1 4IL       0.069200
     51 H18        -28.1220   -16.6480    45.3710 ha         1 4IL       0.141000
     52 H19        -28.9320   -16.6630    48.7040 hc         1 4IL       0.042867
     53 H20        -27.2110   -16.3460    48.6340 hc         1 4IL       0.042867
     54 H21        -28.2810   -15.6180    47.4340 hc         1 4IL       0.042867
     55 H22        -28.4340   -19.1920    48.6150 hc         1 4IL       0.042867
     56 H23        -27.5850   -19.8770    47.2290 hc         1 4IL       0.042867
     57 H24        -26.7110   -18.9410    48.4350 hc         1 4IL       0.042867
     58 H25        -25.5070   -18.6740    42.8980 h1         1 4IL       0.087700
     59 H26        -26.1950   -15.6730    43.1390 ha         1 4IL       0.136000
     60 H27        -21.3960   -16.5100    40.0450 hc         1 4IL       0.067200
     61 H28        -22.3040   -15.4540    41.1290 hc         1 4IL       0.067200
     62 H29        -24.0570   -13.6560    39.8290 h1         1 4IL       0.058700
     63 H30        -24.1720   -14.0240    38.1040 h1         1 4IL       0.058700
     64 H31        -26.2930   -18.0050    38.2360 ho         1 4IL       0.445000
     65 O02        -32.9410   -19.0560    44.0270 os         1 4IL      -0.321900
     66 C10        -27.7460   -18.7530    44.8440 c3         1 4IL       0.081500
@<TRIPOS>BOND
     1     1    21 1   
     2     1    34 1   
     3     1    35 1   
     4     1    36 1   
     5     2    21 1   
     6     2    37 1   
     7     2    38 1   
     8     2    39 1   
     9     3     4 1   
    10     3    28 1   
    11     3    30 2   
    12     4    22 1   
    13     4    29 1   
    14     4    40 1   
    15     5    22 1   
    16     5    23 1   
    17     5    41 1   
    18     5    42 1   
    19     6    25 1   
    20     6    26 1   
    21     6    33 2   
    22     7    43 1   
    23     7    44 1   
    24     7    45 1   
    25     7    65 1   
    26     8     9 ar  
    27     8    13 ar  
    28     8    65 1   
    29     9    10 ar  
    30     9    46 1   
    31    10    11 ar  
    32    10    47 1   
    33    11    12 ar  
    34    11    26 1   
    35    12    13 ar  
    36    12    27 1   
    37    13    48 1   
    38    14    15 2   
    39    14    51 1   
    40    14    66 1   
    41    15    16 1   
    42    15    17 1   
    43    16    52 1   
    44    16    53 1   
    45    16    54 1   
    46    17    55 1   
    47    17    56 1   
    48    17    57 1   
    49    18    19 1   
    50    18    26 2   
    51    18    27 1   
    52    19    20 1   
    53    19    28 1   
    54    19    58 1   
    55    20    21 2   
    56    20    59 1   
    57    22    60 1   
    58    22    61 1   
    59    23    29 1   
    60    23    62 1   
    61    23    63 1   
    62    24    25 1   
    63    24    29 1   
    64    24    31 2   
    65    25    28 1   
    66    25    32 1   
    67    27    66 1   
    68    32    64 1   
    69    49    66 1   
    70    50    66 1   
@<TRIPOS>SUBSTRUCTURE
     1 4IL         1 TEMP              0 ****  ****    0 ROOT
