@<TRIPOS>MOLECULE
4IL
   66    70     1     0     0
SMALL
No Charge or Current Charge


@<TRIPOS>ATOM
      1 C19        -23.8190   -17.8980    44.9880 c3         1 4IL      -0.064900
      2 C20        -24.4240   -15.4830    45.3490 c3         1 4IL      -0.064900
      3 C22        -23.8370   -17.4040    40.9530 c          1 4IL       0.575000
      4 C24        -23.4770   -16.4910    39.7320 c5         1 4IL       0.033700
      5 C26        -22.4630   -14.4690    38.9290 c5         1 4IL      -0.098400
      6 C33        -27.7430   -17.4260    40.1880 c          1 4IL       0.618300
      7 C01        -34.2230   -19.0270    43.7630 c3         1 4IL       0.150900
      8 C03        -31.7870   -18.7390    43.4870 ca         1 4IL       0.152100
      9 C04        -31.9160   -18.3390    42.1290 ca         1 4IL      -0.205000
     10 C05        -30.7730   -18.0100    41.3680 ca         1 4IL      -0.021000
     11 C06        -29.5240   -18.0940    41.9980 ca         1 4IL      -0.071800
     12 C07        -29.3910   -18.4800    43.3050 ca         1 4IL      -0.021200
     13 C08        -30.5120   -18.8100    44.0830 ca         1 4IL      -0.164000
     14 C11        -27.7520   -17.7160    45.9970 c2         1 4IL      -0.251200
     15 C12        -28.3990   -17.7420    47.1780 c2         1 4IL      -0.097400
     16 C13        -28.5130   -16.5110    48.0590 c3         1 4IL      -0.060900
     17 C14        -29.0910   -18.9490    47.7940 c3         1 4IL      -0.060900
     18 C15        -27.2650   -18.0500    42.5450 cc         1 4IL       0.006700
     19 C16        -25.7750   -17.8530    42.4720 c6         1 4IL       0.230100
     20 C17        -25.4630   -16.7020    43.4230 c2         1 4IL      -0.272200
     21 C18        -24.6330   -16.7130    44.4870 c2         1 4IL      -0.060400
     22 C25        -22.2790   -15.5490    40.0320 c5         1 4IL      -0.079400
     23 C27        -23.9900   -14.1850    38.9830 c5         1 4IL       0.099000
     24 C29        -25.8790   -15.8570    39.3630 c          1 4IL       0.534000
     25 C31        -26.1880   -17.2820    39.9520 c6         1 4IL       0.187400
     26 C35        -28.1750   -17.8300    41.5380 cd         1 4IL      -0.231400
     27 N09        -28.0420   -18.4660    43.6470 na         1 4IL      -0.067700
     28 N21        -25.2420   -17.5270    41.1190 n          1 4IL      -0.412800
     29 N28        -24.5190   -15.5100    39.3560 n          1 4IL      -0.401800
     30 O23        -23.0340   -17.8660    41.7550 o          1 4IL      -0.536000
     31 O30        -26.7330   -15.0660    38.9800 o          1 4IL      -0.522000
     32 O32        -25.8300   -18.2760    38.9460 oh         1 4IL      -0.664000
     33 O34        -28.5460   -17.3020    39.2670 o          1 4IL      -0.517100
     34 H1         -22.7490   -17.6580    44.9940 hc         1 4IL       0.045533
     35 H2         -24.1040   -18.1590    46.0150 hc         1 4IL       0.045533
     36 H3         -23.9390   -18.8000    44.3840 hc         1 4IL       0.045533
     37 H4         -24.7190   -15.6740    46.3880 hc         1 4IL       0.045533
     38 H5         -23.3710   -15.1760    45.3500 hc         1 4IL       0.045533
     39 H6         -25.0130   -14.6290    44.9930 hc         1 4IL       0.045533
     40 H7         -23.2620   -17.1530    38.8830 h1         1 4IL       0.094700
     41 H8         -22.1730   -14.8600    37.9460 hc         1 4IL       0.057200
     42 H9         -21.8640   -13.5690    39.1090 hc         1 4IL       0.057200
     43 H10        -34.9310   -19.3230    44.5460 h1         1 4IL       0.040367
     44 H11        -34.4850   -18.0130    43.4320 h1         1 4IL       0.040367
     45 H12        -34.3430   -19.7160    42.9170 h1         1 4IL       0.040367
     46 H13        -32.8890   -18.2770    41.6500 ha         1 4IL       0.119000
     47 H14        -30.8670   -17.7010    40.3300 ha         1 4IL       0.135000
     48 H15        -30.4110   -19.1110    45.1210 ha         1 4IL       0.133000
     49 H16        -28.0970   -19.7500    45.2950 h1         1 4IL       0.069200
     50 H17        -26.5050   -19.1010    44.9290 h1         1 4IL       0.069200
     51 H18        -27.2950   -16.7830    45.6640 ha         1 4IL       0.191000
     52 H19        -29.5630   -16.2390    48.2230 hc         1 4IL       0.042867
     53 H20        -28.0540   -16.6820    49.0400 hc         1 4IL       0.042867
     54 H21        -28.0160   -15.6410    47.6120 hc         1 4IL       0.042867
     55 H22        -30.1650   -18.7640    47.9130 hc         1 4IL       0.042867
     56 H23        -28.9830   -19.8610    47.2010 hc         1 4IL       0.042867
     57 H24        -28.6820   -19.1670    48.7880 hc         1 4IL       0.042867
     58 H25        -25.2970   -18.7830    42.8040 h1         1 4IL       0.087700
     59 H26        -25.9900   -15.7800    43.1760 ha         1 4IL       0.186000
     60 H27        -21.3120   -16.0620    39.9710 hc         1 4IL       0.067200
     61 H28        -22.3560   -15.1060    41.0330 hc         1 4IL       0.067200
     62 H29        -24.2360   -13.4420    39.7550 h1         1 4IL       0.058700
     63 H30        -24.3820   -13.8320    38.0200 h1         1 4IL       0.058700
     64 H31        -26.4530   -18.1610    38.1910 ho         1 4IL       0.484000
     65 O02        -32.8760   -19.0670    44.2680 os         1 4IL      -0.345100
     66 C10        -27.5690   -18.8410    44.9910 c3         1 4IL       0.110800
@<TRIPOS>BOND
     1     1    21 1   
     2     1    34 1   
     3     1    35 1   
     4     1    36 1   
     5     2    21 1   
     6     2    37 1   
     7     2    38 1   
     8     2    39 1   
     9     3     4 1   
    10     3    28 1   
    11     3    30 2   
    12     4    22 1   
    13     4    29 1   
    14     4    40 1   
    15     5    22 1   
    16     5    23 1   
    17     5    41 1   
    18     5    42 1   
    19     6    25 1   
    20     6    26 1   
    21     6    33 2   
    22     7    43 1   
    23     7    44 1   
    24     7    45 1   
    25     7    65 1   
    26     8     9 ar  
    27     8    13 ar  
    28     8    65 1   
    29     9    10 ar  
    30     9    46 1   
    31    10    11 ar  
    32    10    47 1   
    33    11    12 ar  
    34    11    26 1   
    35    12    13 ar  
    36    12    27 1   
    37    13    48 1   
    38    14    15 2   
    39    14    51 1   
    40    14    66 1   
    41    15    16 1   
    42    15    17 1   
    43    16    52 1   
    44    16    53 1   
    45    16    54 1   
    46    17    55 1   
    47    17    56 1   
    48    17    57 1   
    49    18    19 1   
    50    18    26 2   
    51    18    27 1   
    52    19    20 1   
    53    19    28 1   
    54    19    58 1   
    55    20    21 2   
    56    20    59 1   
    57    22    60 1   
    58    22    61 1   
    59    23    29 1   
    60    23    62 1   
    61    23    63 1   
    62    24    25 1   
    63    24    29 1   
    64    24    31 2   
    65    25    28 1   
    66    25    32 1   
    67    27    66 1   
    68    32    64 1   
    69    49    66 1   
    70    50    66 1   
@<TRIPOS>SUBSTRUCTURE
     1 4IL         1 TEMP              0 ****  ****    0 ROOT
