@<TRIPOS>MOLECULE
4IM
   36    36     1     0     0
SMALL
abcg2


@<TRIPOS>ATOM
      1 C04          9.5110    29.8770    85.1690 c6         1 4IM       0.153300
      2 C03         10.8910    29.8110    85.8250 c6         1 4IM       0.214800
      3 C02         11.7350    28.6590    85.2540 c6         1 4IM       0.254300
      4 C01         11.8730    28.8020    83.7210 c6         1 4IM       0.214800
      5 C06         10.4930    28.8820    83.0550 c6         1 4IM       0.153300
      6 C05          9.6080    29.9740    83.6550 c6         1 4IM       0.196300
      7 O02         13.0110    28.6500    85.8630 os         1 4IM      -0.576400
      8 O03         10.7130    29.6370    87.2280 os         1 4IM      -0.604400
      9 O04          8.7400    30.9690    85.6470 oh         1 4IM      -0.768000
     10 O05          8.2840    29.8760    83.1290 os         1 4IM      -0.647400
     11 O06         10.6600    29.0930    81.6630 oh         1 4IM      -0.768000
     12 O01         12.5910    27.6960    83.1930 os         1 4IM      -0.604400
     13 P02         13.6350    27.3900    86.7930 p5         1 4IM       1.349900
     14 P01         14.0370    27.8060    82.3270 p5         1 4IM       1.346900
     15 P05          7.7640    30.7840    81.8240 p5         1 4IM       1.335900
     16 O22         12.7380    26.1800    86.5430 o          1 4IM      -0.975167
     17 O21         13.6040    27.8890    88.2360 o          1 4IM      -0.975167
     18 O23         15.0580    27.2430    86.2600 o          1 4IM      -0.975167
     19 O11         14.7350    29.0740    82.8090 o          1 4IM      -0.968500
     20 O12         13.6780    27.8510    80.8440 o          1 4IM      -0.968500
     21 O13         14.7260    26.5010    82.7200 o          1 4IM      -0.968500
     22 O51          6.2690    30.5170    81.8180 o          1 4IM      -0.965500
     23 O52          8.5030    30.1750    80.6170 o          1 4IM      -0.965500
     24 O53          8.1640    32.2260    82.0940 o          1 4IM      -0.965500
     25 P03         10.8850    30.9250    88.2850 p5         1 4IM       1.346900
     26 O33         12.2980    31.4640    88.1270 o          1 4IM      -0.968500
     27 O32         10.5870    30.2800    89.6260 o          1 4IM      -0.968500
     28 O31          9.8160    31.9350    87.8260 o          1 4IM      -0.968500
     29 H1           8.9940    28.9360    85.4130 h1         1 4IM      -0.017800
     30 H2          11.4260    30.7490    85.6360 h1         1 4IM       0.023700
     31 H3          11.2290    27.7120    85.4690 h1         1 4IM       0.014700
     32 H4          12.4220    29.7250    83.5110 h1         1 4IM       0.023700
     33 H5           9.9890    27.9170    83.2270 h1         1 4IM      -0.017800
     34 H6          10.0290    30.9530    83.4000 h1         1 4IM       0.027700
     35 H7           9.1320    31.3160    86.5030 ho         1 4IM       0.490500
     36 H8           9.8170    29.4600    81.2690 ho         1 4IM       0.490500
@<TRIPOS>BOND
     1     1     2 1   
     2     1     6 1   
     3     1     9 1   
     4     1    29 1   
     5     2     3 1   
     6     2     8 1   
     7     2    30 1   
     8     3     4 1   
     9     3     7 1   
    10     3    31 1   
    11     4     5 1   
    12     4    12 1   
    13     4    32 1   
    14     5     6 1   
    15     5    11 1   
    16     5    33 1   
    17     6    10 1   
    18     6    34 1   
    19     7    13 1   
    20     8    25 1   
    21     9    35 1   
    22    10    15 1   
    23    11    36 1   
    24    12    14 1   
    25    13    16 1   
    26    13    17 1   
    27    13    18 1   
    28    14    19 1   
    29    14    20 1   
    30    14    21 1   
    31    15    22 1   
    32    15    23 1   
    33    15    24 1   
    34    25    26 1   
    35    25    27 1   
    36    25    28 1   
@<TRIPOS>SUBSTRUCTURE
     1 4IM         1 TEMP              0 ****  ****    0 ROOT
