@<TRIPOS>MOLECULE
4IM
   36    36     1     0     0
SMALL
No Charge or Current Charge


@<TRIPOS>ATOM
      1 C04          9.4920    29.7820    85.2910 c6         1 4IM       0.153300
      2 C03         10.9570    29.7950    85.8720 c6         1 4IM       0.214800
      3 C02         11.7740    28.5660    85.3160 c6         1 4IM       0.254300
      4 C01         11.8360    28.6670    83.7390 c6         1 4IM       0.214800
      5 C06         10.3670    28.6120    83.1610 c6         1 4IM       0.153300
      6 C05          9.5250    29.8190    83.7180 c6         1 4IM       0.196300
      7 O02         13.0880    28.4600    85.9320 os         1 4IM      -0.576400
      8 O03         10.9510    29.8670    87.3250 os         1 4IM      -0.604400
      9 O04          8.6520    30.8280    85.8420 oh         1 4IM      -0.768000
     10 O05          8.1810    29.8600    83.1570 os         1 4IM      -0.647400
     11 O06         10.3180    28.5190    81.7170 oh         1 4IM      -0.768000
     12 O01         12.7020    27.6680    83.1220 os         1 4IM      -0.604400
     13 P02         13.4530    27.1480    86.8050 p5         1 4IM       1.349900
     14 P01         13.9890    28.1320    82.2560 p5         1 4IM       1.346900
     15 P05          7.8770    30.7630    81.8630 p5         1 4IM       1.335900
     16 O22         13.3910    25.9140    85.9740 o          1 4IM      -0.975167
     17 O21         12.5240    26.9920    87.9580 o          1 4IM      -0.975167
     18 O23         14.8380    27.2910    87.3380 o          1 4IM      -0.975167
     19 O11         14.9480    28.9030    83.0940 o          1 4IM      -0.968500
     20 O12         13.5830    28.9720    81.0940 o          1 4IM      -0.968500
     21 O13         14.6780    26.9170    81.7350 o          1 4IM      -0.968500
     22 O51          6.4590    30.5640    81.4570 o          1 4IM      -0.965500
     23 O52          8.7720    30.3170    80.7650 o          1 4IM      -0.965500
     24 O53          8.1100    32.2010    82.1610 o          1 4IM      -0.965500
     25 P03         11.0780    31.3000    88.0450 p5         1 4IM       1.346900
     26 O33         12.3890    31.9290    87.7350 o          1 4IM      -0.968500
     27 O32         10.9460    31.1290    89.5170 o          1 4IM      -0.968500
     28 O31          9.9750    32.1670    87.5550 o          1 4IM      -0.968500
     29 H1           9.0520    28.8150    85.5770 h1         1 4IM      -0.017800
     30 H2          11.4490    30.7020    85.4880 h1         1 4IM       0.023700
     31 H3          11.2020    27.6580    85.5610 h1         1 4IM       0.014700
     32 H4          12.2400    29.6630    83.4980 h1         1 4IM       0.023700
     33 H5           9.9050    27.6980    83.5630 h1         1 4IM      -0.017800
     34 H6          10.0470    30.7430    83.4270 h1         1 4IM       0.027700
     35 H7           9.2130    31.3270    86.5260 ho         1 4IM       0.490500
     36 H8           9.6840    29.2460    81.3980 ho         1 4IM       0.490500
@<TRIPOS>BOND
     1     1     2 1   
     2     1     6 1   
     3     1     9 1   
     4     1    29 1   
     5     2     3 1   
     6     2     8 1   
     7     2    30 1   
     8     3     4 1   
     9     3     7 1   
    10     3    31 1   
    11     4     5 1   
    12     4    12 1   
    13     4    32 1   
    14     5     6 1   
    15     5    11 1   
    16     5    33 1   
    17     6    10 1   
    18     6    34 1   
    19     7    13 1   
    20     8    25 1   
    21     9    35 1   
    22    10    15 1   
    23    11    36 1   
    24    12    14 1   
    25    13    16 1   
    26    13    17 1   
    27    13    18 1   
    28    14    19 1   
    29    14    20 1   
    30    14    21 1   
    31    15    22 1   
    32    15    23 1   
    33    15    24 1   
    34    25    26 1   
    35    25    27 1   
    36    25    28 1   
@<TRIPOS>SUBSTRUCTURE
     1 4IM         1 TEMP              0 ****  ****    0 ROOT
