@<TRIPOS>MOLECULE
4IP
   36    36     1     0     0
SMALL
No Charge or Current Charge


@<TRIPOS>ATOM
      1 C1          11.7610    37.5410     7.8280 c6         1 4IP       0.250300
      2 O1          10.8100    38.2220     8.6960 os         1 4IP      -0.620400
      3 C2          12.7520    36.6100     8.6190 c6         1 4IP       0.132300
      4 O2          13.4790    37.2980     9.6640 oh         1 4IP      -0.751500
      5 C3          13.7350    35.8460     7.6500 c6         1 4IP       0.189300
      6 O3          14.6850    34.9650     8.3340 os         1 4IP      -0.600900
      7 C4          14.4850    36.8500     6.6840 c6         1 4IP       0.254300
      8 O4          15.3490    36.1320     5.7570 os         1 4IP      -0.587400
      9 C5          13.4410    37.7460     5.9100 c6         1 4IP       0.189300
     10 O5          14.0570    38.6260     4.9290 os         1 4IP      -0.600900
     11 C6          12.5440    38.5500     6.9170 c6         1 4IP       0.132300
     12 O6          11.6600    39.4940     6.2530 oh         1 4IP      -0.751500
     13 P1           9.4020    37.5240     9.0520 p5         1 4IP       1.322900
     14 O1P          8.6190    38.4500     9.9170 o          1 4IP      -0.976167
     15 O2P          9.6090    36.2480     9.7860 o          1 4IP      -0.976167
     16 O3P          8.6260    37.2650     7.8080 o          1 4IP      -0.976167
     17 P3          14.4020    34.1800     9.7150 p5         1 4IP       1.331400
     18 O4P         15.5340    33.2540     9.9890 o          1 4IP      -0.967500
     19 O5P         14.2990    35.1570    10.8350 o          1 4IP      -0.967500
     20 O6P         13.1530    33.3800     9.5990 o          1 4IP      -0.967500
     21 P4          16.9420    36.4130     5.7400 p5         1 4IP       1.350900
     22 O7P         17.2420    37.8380     5.4300 o          1 4IP      -0.978167
     23 O8P         17.5690    36.0640     7.0440 o          1 4IP      -0.978167
     24 O9P         17.5600    35.5610     4.6840 o          1 4IP      -0.978167
     25 P5          13.3580    38.8310     3.4920 p5         1 4IP       1.331400
     26 OPF         13.3190    37.5510     2.7360 o          1 4IP      -0.967500
     27 OPG         14.1180    39.8440     2.7100 o          1 4IP      -0.967500
     28 OPH         11.9730    39.3270     3.7090 o          1 4IP      -0.967500
     29 H1          11.1890    36.8870     7.1520 h1         1 4IP       0.018700
     30 H2          12.1250    35.8420     9.0900 h1         1 4IP       0.034200
     31 HO2         13.8590    36.5290    10.2030 ho         1 4IP       0.464500
     32 H3          13.1090    35.2010     7.0140 h1         1 4IP       0.024200
     33 H4          15.1030    37.5170     7.3050 h1         1 4IP       0.031700
     34 H5          12.7760    37.0550     5.3720 h1         1 4IP       0.024200
     35 H6          13.2250    39.1170     7.5700 h1         1 4IP       0.034200
     36 HO6         11.8290    39.3990     5.2580 ho         1 4IP       0.464500
@<TRIPOS>BOND
     1     1     2 1   
     2     1     3 1   
     3     1    11 1   
     4     1    29 1   
     5     2    13 1   
     6     3     4 1   
     7     3     5 1   
     8     3    30 1   
     9     4    31 1   
    10     5     6 1   
    11     5     7 1   
    12     5    32 1   
    13     6    17 1   
    14     7     8 1   
    15     7     9 1   
    16     7    33 1   
    17     8    21 1   
    18     9    10 1   
    19     9    11 1   
    20     9    34 1   
    21    10    25 1   
    22    11    12 1   
    23    11    35 1   
    24    12    36 1   
    25    13    14 1   
    26    13    15 1   
    27    13    16 1   
    28    17    18 1   
    29    17    19 1   
    30    17    20 1   
    31    21    22 1   
    32    21    23 1   
    33    21    24 1   
    34    25    26 1   
    35    25    27 1   
    36    25    28 1   
@<TRIPOS>SUBSTRUCTURE
     1 4IP         1 TEMP              0 ****  ****    0 ROOT
