@<TRIPOS>MOLECULE
4IP
   36    36     1     0     0
SMALL
abcg2


@<TRIPOS>ATOM
      1 C1          11.7230    37.6020     7.9200 c6         1 4IP       0.250300
      2 O1          10.8800    38.3950     8.7450 os         1 4IP      -0.620400
      3 C2          12.7420    36.8470     8.7600 c6         1 4IP       0.132300
      4 O2          13.4920    37.7670     9.5720 oh         1 4IP      -0.751500
      5 C3          13.7130    36.0270     7.9080 c6         1 4IP       0.189300
      6 O3          14.7190    35.4970     8.7650 os         1 4IP      -0.600900
      7 C4          14.3830    36.8760     6.8240 c6         1 4IP       0.254300
      8 O4          15.1740    36.0550     5.9870 os         1 4IP      -0.587400
      9 C5          13.3290    37.6130     5.9880 c6         1 4IP       0.189300
     10 O5          13.9970    38.4390     5.0390 os         1 4IP      -0.600900
     11 C6          12.3950    38.4670     6.8550 c6         1 4IP       0.132300
     12 O6          11.3930    39.1050     6.0760 oh         1 4IP      -0.751500
     13 P1           9.3600    37.8280     9.1910 p5         1 4IP       1.322900
     14 O1P          8.9340    38.8790    10.2100 o          1 4IP      -0.976167
     15 O2P          9.5730    36.4350     9.7780 o          1 4IP      -0.976167
     16 O3P          8.5180    37.8180     7.9170 o          1 4IP      -0.976167
     17 P3          14.5660    33.9460     9.4140 p5         1 4IP       1.331400
     18 O4P         15.8590    33.8380    10.2130 o          1 4IP      -0.967500
     19 O5P         13.3000    33.9590    10.2660 o          1 4IP      -0.967500
     20 O6P         14.4800    33.0050     8.2170 o          1 4IP      -0.967500
     21 P4          16.8240    36.2750     5.7370 p5         1 4IP       1.350900
     22 O7P         17.2050    37.5790     6.4300 o          1 4IP      -0.978167
     23 O8P         17.4760    35.0400     6.3570 o          1 4IP      -0.978167
     24 O9P         16.9500    36.3120     4.2150 o          1 4IP      -0.978167
     25 P5          13.4700    38.5410     3.4550 p5         1 4IP       1.331400
     26 OPF         13.2880    37.1170     2.9500 o          1 4IP      -0.967500
     27 OPG         14.5860    39.3250     2.7880 o          1 4IP      -0.967500
     28 OPH         12.1410    39.3150     3.5500 o          1 4IP      -0.967500
     29 H1          11.1220    36.8520     7.3900 h1         1 4IP       0.018700
     30 H2          12.2030    36.1610     9.4130 h1         1 4IP       0.034200
     31 HO2         14.2720    37.2580     9.8440 ho         1 4IP       0.464500
     32 H3          13.1650    35.2120     7.4240 h1         1 4IP       0.024200
     33 H4          15.0230    37.6180     7.3040 h1         1 4IP       0.031700
     34 H5          12.7280    36.8670     5.4540 h1         1 4IP       0.024200
     35 H6          13.0080    39.2280     7.3580 h1         1 4IP       0.034200
     36 HO6         11.7090    39.2160     5.1340 ho         1 4IP       0.464500
@<TRIPOS>BOND
     1     1     2 1   
     2     1     3 1   
     3     1    11 1   
     4     1    29 1   
     5     2    13 1   
     6     3     4 1   
     7     3     5 1   
     8     3    30 1   
     9     4    31 1   
    10     5     6 1   
    11     5     7 1   
    12     5    32 1   
    13     6    17 1   
    14     7     8 1   
    15     7     9 1   
    16     7    33 1   
    17     8    21 1   
    18     9    10 1   
    19     9    11 1   
    20     9    34 1   
    21    10    25 1   
    22    11    12 1   
    23    11    35 1   
    24    12    36 1   
    25    13    14 1   
    26    13    15 1   
    27    13    16 1   
    28    17    18 1   
    29    17    19 1   
    30    17    20 1   
    31    21    22 1   
    32    21    23 1   
    33    21    24 1   
    34    25    26 1   
    35    25    27 1   
    36    25    28 1   
@<TRIPOS>SUBSTRUCTURE
     1 4IP         1 TEMP              0 ****  ****    0 ROOT
