@<TRIPOS>MOLECULE
4IS
   22    23     1     0     0
SMALL
No Charge or Current Charge


@<TRIPOS>ATOM
      1 CAD         27.5040   -17.4110    16.0300 c5         1 4IS      -0.165700
      2 CAE         27.4550   -15.8770    16.1940 c5         1 4IS      -0.107400
      3 CAF         27.6650   -17.5060    14.5190 ce         1 4IS       0.434900
      4 CAG         26.7000   -15.5060    14.9020 c5         1 4IS       0.081800
      5 CAH         28.2600   -18.6950    13.8250 ca         1 4IS      -0.136900
      6 CAI         28.8310   -18.6150    12.5290 ca         1 4IS       0.198000
      7 CAJ         28.1990   -19.9620    14.4540 ca         1 4IS      -0.117000
      8 CAK         28.7110   -21.1050    13.8170 ca         1 4IS       0.147000
      9 CAL         29.3440   -19.7630    11.8990 ca         1 4IS      -0.140000
     10 CAM         29.2850   -21.0110    12.5420 ca         1 4IS      -0.113000
     11 FAA         28.9330   -17.4360    11.8760 f          1 4IS      -0.151000
     12 FAB         28.6450   -22.3030    14.4370 f          1 4IS      -0.175000
     13 NAC         27.2280   -16.4560    13.8910 n2         1 4IS      -0.538900
     14 H1          26.5710   -17.8860    16.3540 hc         1 4IS       0.062700
     15 H2          28.3340   -17.8720    16.5750 hc         1 4IS       0.062700
     16 H3          28.4620   -15.4430    16.2040 hc         1 4IS       0.055200
     17 H4          26.9380   -15.5520    17.1040 hc         1 4IS       0.055200
     18 H6          26.8810   -14.4630    14.6060 h1         1 4IS       0.068700
     19 H7          25.6150   -15.6440    15.0160 h1         1 4IS       0.068700
     20 H8          27.7480   -20.0730    15.4370 ha         1 4IS       0.134000
     21 H9          29.7880   -19.6810    10.9100 ha         1 4IS       0.138000
     22 H10         29.6790   -21.9010    12.0570 ha         1 4IS       0.137000
@<TRIPOS>BOND
     1     1     2 1   
     2     1     3 1   
     3     1    14 1   
     4     1    15 1   
     5     2     4 1   
     6     2    16 1   
     7     2    17 1   
     8     3     5 1   
     9     3    13 2   
    10     4    13 1   
    11     4    18 1   
    12     4    19 1   
    13     5     6 ar  
    14     5     7 ar  
    15     6     9 ar  
    16     6    11 1   
    17     7     8 ar  
    18     7    20 1   
    19     8    10 ar  
    20     8    12 1   
    21     9    10 ar  
    22     9    21 1   
    23    10    22 1   
@<TRIPOS>SUBSTRUCTURE
     1 4IS         1 TEMP              0 ****  ****    0 ROOT
