@<TRIPOS>MOLECULE
4IS
   22    23     1     0     0
SMALL
bcc


@<TRIPOS>ATOM
      1 CAD         27.5580   -17.4490    16.0070 c5         1 4IS      -0.165700
      2 CAE         27.2950   -15.9620    16.2440 c5         1 4IS      -0.107400
      3 CAF         27.7230   -17.4850    14.5050 ce         1 4IS       0.434900
      4 CAG         26.8430   -15.4730    14.8610 c5         1 4IS       0.081800
      5 CAH         28.2490   -18.6730    13.8130 ca         1 4IS      -0.136900
      6 CAI         28.7400   -18.6510    12.5080 ca         1 4IS       0.162900
      7 CAJ         28.2750   -19.9000    14.4820 ca         1 4IS      -0.135000
      8 CAK         28.7530   -21.0280    13.8490 ca         1 4IS       0.111900
      9 CAL         29.2300   -19.7820    11.8840 ca         1 4IS      -0.158000
     10 CAM         29.2350   -20.9940    12.5560 ca         1 4IS      -0.131000
     11 FAA         28.7730   -17.5060    11.8220 f          1 4IS      -0.115900
     12 FAB         28.7500   -22.1950    14.5110 f          1 4IS      -0.139900
     13 NAC         27.3400   -16.4380    13.8950 n2         1 4IS      -0.538900
     14 H1          26.7080   -18.0710    16.3040 hc         1 4IS       0.062700
     15 H2          28.4330   -17.8280    16.5380 hc         1 4IS       0.062700
     16 H3          28.2180   -15.4600    16.5380 hc         1 4IS       0.055200
     17 H4          26.5560   -15.7760    17.0210 hc         1 4IS       0.055200
     18 H6          27.2110   -14.4750    14.6160 h1         1 4IS       0.068700
     19 H7          25.7520   -15.4300    14.7750 h1         1 4IS       0.068700
     20 H8          27.9110   -19.9790    15.4980 ha         1 4IS       0.152000
     21 H9          29.6090   -19.7150    10.8730 ha         1 4IS       0.156000
     22 H10         29.6130   -21.8890    12.0790 ha         1 4IS       0.155000
@<TRIPOS>BOND
     1     1     2 1   
     2     1     3 1   
     3     1    14 1   
     4     1    15 1   
     5     2     4 1   
     6     2    16 1   
     7     2    17 1   
     8     3     5 1   
     9     3    13 2   
    10     4    13 1   
    11     4    18 1   
    12     4    19 1   
    13     5     6 ar  
    14     5     7 ar  
    15     6     9 ar  
    16     6    11 1   
    17     7     8 ar  
    18     7    20 1   
    19     8    10 ar  
    20     8    12 1   
    21     9    10 ar  
    22     9    21 1   
    23    10    22 1   
@<TRIPOS>SUBSTRUCTURE
     1 4IS         1 TEMP              0 ****  ****    0 ROOT
