@<TRIPOS>MOLECULE
4IU
   41    43     1     0     0
SMALL
abcg2


@<TRIPOS>ATOM
      1 O4           4.8490    -0.3380     6.6460 o          1 4IU      -0.720500
      2 C15          4.5800    -1.2900     5.8860 c          1 4IU       0.713600
      3 O5           3.7140    -1.3110     4.9910 o          1 4IU      -0.720500
      4 C12          5.3990    -2.5650     6.0730 ca         1 4IU      -0.116600
      5 C11          5.2310    -3.6530     5.1950 ca         1 4IU      -0.096000
      6 C10          5.9570    -4.8220     5.3190 ca         1 4IU      -0.101000
      7 C8           6.8790    -4.9130     6.3630 ca         1 4IU       0.046400
      8 N            7.7270    -5.9320     6.7200 nc         1 4IU      -0.586100
      9 C13          6.3160    -2.6500     7.1110 ca         1 4IU      -0.104000
     10 C9           7.0340    -3.8320     7.2420 ca         1 4IU      -0.086200
     11 N1           7.9820    -4.2400     8.1490 na         1 4IU      -0.167600
     12 C14          8.4870    -3.4590     9.2540 c3         1 4IU       0.076900
     13 C7           8.3600    -5.4930     7.7750 cd         1 4IU       0.373800
     14 C6           9.3910    -6.2670     8.5200 c3         1 4IU       0.148300
     15 O3          10.5820    -5.5190     8.5160 os         1 4IU      -0.430000
     16 C1          11.6300    -6.0980     9.2620 c6         1 4IU       0.230500
     17 C2          11.4510    -5.9350    10.7460 c2         1 4IU      -0.370200
     18 C3          12.4780    -5.6430    11.5400 c2         1 4IU       0.007100
     19 O           13.7560    -5.5090    11.1420 os         1 4IU      -0.326100
     20 C4          14.0290    -5.9050     9.8010 c6         1 4IU       0.127300
     21 C           12.9350    -5.4230     8.8480 c6         1 4IU       0.147300
     22 O2          12.7620    -4.0300     8.9190 oh         1 4IU      -0.680000
     23 C5          15.3980    -5.3820     9.4280 c3         1 4IU       0.165600
     24 O1          16.3550    -5.9720    10.2730 oh         1 4IU      -0.647000
     25 H2           4.5080    -3.5610     4.3960 ha         1 4IU       0.129000
     26 H3           5.8180    -5.6440     4.6280 ha         1 4IU       0.102000
     27 H4           6.4560    -1.8160     7.7870 ha         1 4IU       0.134000
     28 H5           8.7190    -4.1020    10.0990 h1         1 4IU       0.045033
     29 H6           9.3820    -2.9050     8.9760 h1         1 4IU       0.045033
     30 H7           7.7210    -2.7560     9.5720 h1         1 4IU       0.045033
     31 H8           9.0360    -6.4650     9.5400 h1         1 4IU       0.037700
     32 H9           9.5160    -7.2390     8.0270 h1         1 4IU       0.037700
     33 H10         11.7110    -7.1640     9.0030 h1         1 4IU       0.036700
     34 H11         10.4740    -6.0510    11.1960 ha         1 4IU       0.193000
     35 H12         12.3660    -5.4920    12.6070 h4         1 4IU       0.209000
     36 H13         14.0520    -7.0040     9.7590 h1         1 4IU       0.058700
     37 H14         13.1960    -5.7470     7.8320 h1         1 4IU       0.047700
     38 H15         13.3900    -3.6080     8.3260 ho         1 4IU       0.498000
     39 H16         15.5700    -5.6340     8.3740 h1         1 4IU       0.027200
     40 H17         15.4100    -4.2870     9.5050 h1         1 4IU       0.027200
     41 H18         17.2160    -5.6080    10.0490 ho         1 4IU       0.441000
@<TRIPOS>BOND
     1     1     2 1   
     2     2     3 1   
     3     2     4 1   
     4     4     5 ar  
     5     4     9 ar  
     6     5     6 ar  
     7     5    25 1   
     8     6     7 ar  
     9     6    26 1   
    10     7     8 1   
    11     7    10 ar  
    12     8    13 2   
    13     9    10 ar  
    14     9    27 1   
    15    10    11 1   
    16    11    12 1   
    17    11    13 1   
    18    12    28 1   
    19    12    29 1   
    20    12    30 1   
    21    13    14 1   
    22    14    15 1   
    23    14    31 1   
    24    14    32 1   
    25    15    16 1   
    26    16    17 1   
    27    16    21 1   
    28    16    33 1   
    29    17    18 2   
    30    17    34 1   
    31    18    19 1   
    32    18    35 1   
    33    19    20 1   
    34    20    21 1   
    35    20    23 1   
    36    20    36 1   
    37    21    22 1   
    38    21    37 1   
    39    22    38 1   
    40    23    24 1   
    41    23    39 1   
    42    23    40 1   
    43    24    41 1   
@<TRIPOS>SUBSTRUCTURE
     1 4IU         1 TEMP              0 ****  ****    0 ROOT
