@<TRIPOS>MOLECULE
4IU
   41    43     1     0     0
SMALL
No Charge or Current Charge


@<TRIPOS>ATOM
      1 O4           4.5490    -0.3830     6.6500 o          1 4IU      -0.720500
      2 C15          4.4790    -1.2700     5.8110 c          1 4IU       0.713600
      3 O5           3.7440    -1.2010     4.8350 o          1 4IU      -0.720500
      4 C12          5.3430    -2.5110     5.9870 ca         1 4IU      -0.116600
      5 C11          5.2970    -3.5710     5.0370 ca         1 4IU      -0.096000
      6 C10          6.0950    -4.7250     5.1940 ca         1 4IU      -0.101000
      7 C8           6.9410    -4.8130     6.3060 ca         1 4IU       0.046400
      8 N            7.7960    -5.8530     6.6360 nc         1 4IU      -0.586100
      9 C13          6.2130    -2.6360     7.1020 ca         1 4IU      -0.104000
     10 C9           6.9890    -3.7990     7.2210 ca         1 4IU      -0.086200
     11 N1           7.8880    -4.1480     8.1920 na         1 4IU      -0.167600
     12 C14          8.2410    -3.3300     9.3630 c3         1 4IU       0.076900
     13 C7           8.3570    -5.4110     7.7840 cd         1 4IU       0.373800
     14 C6           9.3790    -6.2240     8.5570 c3         1 4IU       0.148300
     15 O3          10.6560    -5.5450     8.5580 os         1 4IU      -0.430000
     16 C1          11.7320    -6.1730     9.2850 c6         1 4IU       0.230500
     17 C2          11.5490    -5.9310    10.7790 c2         1 4IU      -0.370200
     18 C3          12.5670    -5.6210    11.6030 c2         1 4IU       0.007100
     19 O           13.8680    -5.5360    11.1680 os         1 4IU      -0.326100
     20 C4          14.1890    -6.0010     9.8290 c6         1 4IU       0.127300
     21 C           13.0940    -5.5890     8.8000 c6         1 4IU       0.147300
     22 O2          12.9840    -4.1570     8.6550 oh         1 4IU      -0.680000
     23 C5          15.6150    -5.4950     9.4430 c3         1 4IU       0.165600
     24 O1          16.6340    -5.9230    10.3660 oh         1 4IU      -0.647000
     25 H2           4.6400    -3.5030     4.1730 ha         1 4IU       0.129000
     26 H3           6.0540    -5.5300     4.4650 ha         1 4IU       0.102000
     27 H4           6.2790    -1.8500     7.8510 ha         1 4IU       0.134000
     28 H5           8.9230    -3.8830    10.0210 h1         1 4IU       0.045033
     29 H6           8.7310    -2.4070     9.0310 h1         1 4IU       0.045033
     30 H7           7.3310    -3.0760     9.9220 h1         1 4IU       0.045033
     31 H8           9.0060    -6.3650     9.5780 h1         1 4IU       0.037700
     32 H9           9.4750    -7.2150     8.0960 h1         1 4IU       0.037700
     33 H10         11.7200    -7.2550     9.0820 h1         1 4IU       0.036700
     34 H11         10.5350    -5.9980    11.1710 ha         1 4IU       0.193000
     35 H12         12.4380    -5.4240    12.6700 h4         1 4IU       0.209000
     36 H13         14.2240    -7.1000     9.8570 h1         1 4IU       0.058700
     37 H14         13.3350    -6.0430     7.8280 h1         1 4IU       0.047700
     38 H15         12.0120    -4.0020     8.5850 ho         1 4IU       0.498000
     39 H16         15.8480    -5.8630     8.4350 h1         1 4IU       0.027200
     40 H17         15.5940    -4.3980     9.3940 h1         1 4IU       0.027200
     41 H18         17.4770    -5.5090    10.0740 ho         1 4IU       0.441000
@<TRIPOS>BOND
     1     1     2 1   
     2     2     3 1   
     3     2     4 1   
     4     4     5 ar  
     5     4     9 ar  
     6     5     6 ar  
     7     5    25 1   
     8     6     7 ar  
     9     6    26 1   
    10     7     8 1   
    11     7    10 ar  
    12     8    13 2   
    13     9    10 ar  
    14     9    27 1   
    15    10    11 1   
    16    11    12 1   
    17    11    13 1   
    18    12    28 1   
    19    12    29 1   
    20    12    30 1   
    21    13    14 1   
    22    14    15 1   
    23    14    31 1   
    24    14    32 1   
    25    15    16 1   
    26    16    17 1   
    27    16    21 1   
    28    16    33 1   
    29    17    18 2   
    30    17    34 1   
    31    18    19 1   
    32    18    35 1   
    33    19    20 1   
    34    20    21 1   
    35    20    23 1   
    36    20    36 1   
    37    21    22 1   
    38    21    37 1   
    39    22    38 1   
    40    23    24 1   
    41    23    39 1   
    42    23    40 1   
    43    24    41 1   
@<TRIPOS>SUBSTRUCTURE
     1 4IU         1 TEMP              0 ****  ****    0 ROOT
