@<TRIPOS>MOLECULE
4IV
   46    48     1     0     0
SMALL
No Charge or Current Charge


@<TRIPOS>ATOM
      1 N1          -7.1350    -7.7500     6.4280 ns         1 4IV      -0.128000
      2 C4          -2.7970    -8.8370     3.8030 ca         1 4IV      -0.050000
      3 C5          -2.5250    -8.9610     5.1700 ca         1 4IV      -0.157000
      4 C6          -3.5130    -8.6470     6.1160 ca         1 4IV      -0.024000
      5 C7          -5.8090    -7.8900     6.8070 c          1 4IV       0.627700
      6 C8          -8.3130    -7.3950     7.1430 ca         1 4IV      -0.047000
      7 C10        -10.7570    -7.2890     7.1830 ca         1 4IV      -0.172000
      8 C13         -8.2810    -6.7810     8.4150 ca         1 4IV      -0.110000
      9 C15         -7.9830    -6.7330     2.4890 cc         1 4IV      -0.256300
     10 C17         -9.0320    -7.1680     1.6510 cc         1 4IV       0.296300
     11 C20        -10.7730    -8.5460     4.5660 c3         1 4IV       0.152900
     12 C1          -4.7970    -8.2060     5.7140 ca         1 4IV      -0.186600
     13 C11        -10.7130    -6.6870     8.4510 ca         1 4IV      -0.103000
     14 C12         -9.4780    -6.4320     9.0640 ca         1 4IV      -0.121000
     15 C14         -6.5880    -7.2940     2.5320 c3         1 4IV       0.259900
     16 C16         -8.5390    -5.7180     3.2010 cd         1 4IV       0.242300
     17 C18         -8.8910    -8.2960     0.6680 c3         1 4IV      -0.137400
     18 C19         -7.9590    -4.8240     4.2610 c3         1 4IV      -0.144400
     19 C2          -5.0620    -8.0690     4.3230 ca         1 4IV       0.174100
     20 C3          -4.0570    -8.3900     3.3820 ca         1 4IV      -0.210000
     21 C9          -9.5590    -7.6430     6.5240 ca         1 4IV       0.085100
     22 N2         -10.1580    -6.4930     1.8030 nd         1 4IV      -0.372300
     23 O1          -6.2890    -7.5960     3.9020 os         1 4IV      -0.369100
     24 O2          -5.4470    -7.7770     7.9750 o          1 4IV      -0.605100
     25 O3          -9.8430    -5.5360     2.8260 os         1 4IV      -0.072700
     26 O4          -9.5590    -8.2400     5.2760 os         1 4IV      -0.362100
     27 H1          -7.3000    -7.9210     5.4440 hn         1 4IV       0.187000
     28 H2          -2.0300    -9.0810     3.0710 ha         1 4IV       0.115000
     29 H3          -1.5470    -9.3040     5.5000 ha         1 4IV       0.123000
     30 H4          -3.2730    -8.7580     7.1720 ha         1 4IV       0.140000
     31 H5         -11.7280    -7.4710     6.7300 ha         1 4IV       0.117000
     32 H6          -7.3410    -6.5530     8.9080 ha         1 4IV       0.151000
     33 H7         -10.5410    -9.0150     3.6020 h1         1 4IV       0.043367
     34 H8         -11.3970    -9.2420     5.1410 h1         1 4IV       0.043367
     35 H9         -11.3500    -7.6340     4.3700 h1         1 4IV       0.043367
     36 H10        -11.6370    -6.4140     8.9570 ha         1 4IV       0.113000
     37 H11         -9.4460    -5.9580    10.0430 ha         1 4IV       0.116000
     38 H12         -6.5170    -8.1980     1.9140 h1         1 4IV       0.045700
     39 H13         -5.8880    -6.5450     2.1370 h1         1 4IV       0.045700
     40 H14         -9.8190    -8.4490     0.1040 hc         1 4IV       0.058033
     41 H15         -8.0910    -8.0880    -0.0520 hc         1 4IV       0.058033
     42 H16         -8.6550    -9.2330     1.1850 hc         1 4IV       0.058033
     43 H17         -8.2100    -3.7750     4.0660 hc         1 4IV       0.071033
     44 H18         -8.3540    -5.0880     5.2480 hc         1 4IV       0.071033
     45 H19         -6.8670    -4.9060     4.3000 hc         1 4IV       0.071033
     46 H20         -4.2300    -8.2980     2.3140 ha         1 4IV       0.118000
@<TRIPOS>BOND
     1     1     5 1   
     2     1     6 1   
     3     1    27 1   
     4     2     3 ar  
     5     2    20 ar  
     6     2    28 1   
     7     3     4 ar  
     8     3    29 1   
     9     4    12 ar  
    10     4    30 1   
    11     5    12 1   
    12     5    24 2   
    13     6     8 ar  
    14     6    21 ar  
    15     7    13 ar  
    16     7    21 ar  
    17     7    31 1   
    18     8    14 ar  
    19     8    32 1   
    20     9    10 1   
    21     9    15 1   
    22     9    16 2   
    23    10    17 1   
    24    10    22 2   
    25    11    26 1   
    26    11    33 1   
    27    11    34 1   
    28    11    35 1   
    29    12    19 ar  
    30    13    14 ar  
    31    13    36 1   
    32    14    37 1   
    33    15    23 1   
    34    15    38 1   
    35    15    39 1   
    36    16    18 1   
    37    16    25 1   
    38    17    40 1   
    39    17    41 1   
    40    17    42 1   
    41    18    43 1   
    42    18    44 1   
    43    18    45 1   
    44    19    20 ar  
    45    19    23 1   
    46    20    46 1   
    47    21    26 1   
    48    22    25 1   
@<TRIPOS>SUBSTRUCTURE
     1 4IV         1 TEMP              0 ****  ****    0 ROOT
