@<TRIPOS>MOLECULE
4IV
   46    48     1     0     0
SMALL
abcg2


@<TRIPOS>ATOM
      1 N1          -7.1910    -7.7440     6.4060 ns         1 4IV      -0.128000
      2 C4          -2.8730    -8.8650     3.8840 ca         1 4IV      -0.050000
      3 C5          -2.6530    -8.9570     5.2500 ca         1 4IV      -0.157000
      4 C6          -3.6610    -8.5850     6.1210 ca         1 4IV      -0.024000
      5 C7          -5.8770    -7.7220     6.7310 c          1 4IV       0.627700
      6 C8          -8.2900    -7.4100     7.2050 ca         1 4IV      -0.047000
      7 C10        -10.7120    -7.3000     7.3270 ca         1 4IV      -0.172000
      8 C13         -8.2220    -6.8900     8.4930 ca         1 4IV      -0.110000
      9 C15         -7.9030    -6.7690     2.3640 cc         1 4IV      -0.256300
     10 C17         -8.9140    -7.2240     1.4740 cc         1 4IV       0.296300
     11 C20        -10.7730    -8.3630     4.7150 c3         1 4IV       0.152900
     12 C1          -4.9020    -8.1390     5.6670 ca         1 4IV      -0.186600
     13 C11        -10.6230    -6.7790     8.6140 ca         1 4IV      -0.103000
     14 C12         -9.3850    -6.5780     9.1920 ca         1 4IV      -0.121000
     15 C14         -6.5140    -7.2790     2.4960 c3         1 4IV       0.259900
     16 C16         -8.5120    -5.7820     3.0700 cd         1 4IV       0.242300
     17 C18         -8.8140    -8.3030     0.4570 c3         1 4IV      -0.137400
     18 C19         -8.0610    -4.8920     4.1630 c3         1 4IV      -0.144400
     19 C2          -5.1130    -8.0690     4.2780 ca         1 4IV       0.174100
     20 C3          -4.0920    -8.4200     3.3970 ca         1 4IV      -0.210000
     21 C9          -9.5600    -7.6160     6.6240 ca         1 4IV       0.085100
     22 N2         -10.0160    -6.5540     1.6430 nd         1 4IV      -0.372300
     23 O1          -6.3220    -7.6530     3.8560 os         1 4IV      -0.369100
     24 O2          -5.4650    -7.4160     7.8390 o          1 4IV      -0.605100
     25 O3          -9.7690    -5.6570     2.6450 os         1 4IV      -0.072700
     26 O4          -9.5460    -8.1210     5.3740 os         1 4IV      -0.362100
     27 H1          -7.4220    -8.0120     5.4610 hn         1 4IV       0.187000
     28 H2          -2.0950    -9.1400     3.1840 ha         1 4IV       0.115000
     29 H3          -1.7050    -9.3090     5.6330 ha         1 4IV       0.123000
     30 H4          -3.4870    -8.6390     7.1870 ha         1 4IV       0.140000
     31 H5         -11.6870    -7.4560     6.8850 ha         1 4IV       0.117000
     32 H6          -7.2660    -6.7250     8.9600 ha         1 4IV       0.151000
     33 H7         -10.5210    -8.7600     3.7350 h1         1 4IV       0.043367
     34 H8         -11.3800    -9.0980     5.2490 h1         1 4IV       0.043367
     35 H9         -11.3530    -7.4460     4.5880 h1         1 4IV       0.043367
     36 H10        -11.5300    -6.5370     9.1530 ha         1 4IV       0.113000
     37 H11         -9.3060    -6.1740    10.1920 ha         1 4IV       0.116000
     38 H12         -6.3700    -8.1350     1.8310 h1         1 4IV       0.045700
     39 H13         -5.7770    -6.5180     2.2210 h1         1 4IV       0.045700
     40 H14         -9.7650    -8.4490    -0.0510 hc         1 4IV       0.058033
     41 H15         -8.0580    -8.0630    -0.2910 hc         1 4IV       0.058033
     42 H16         -8.5250    -9.2450     0.9230 hc         1 4IV       0.058033
     43 H17         -8.3030    -3.8520     3.9470 hc         1 4IV       0.071033
     44 H18         -8.5420    -5.1540     5.1070 hc         1 4IV       0.071033
     45 H19         -6.9860    -4.9730     4.3010 hc         1 4IV       0.071033
     46 H20         -4.2360    -8.3570     2.3280 ha         1 4IV       0.118000
@<TRIPOS>BOND
     1     1     5 1   
     2     1     6 1   
     3     1    27 1   
     4     2     3 ar  
     5     2    20 ar  
     6     2    28 1   
     7     3     4 ar  
     8     3    29 1   
     9     4    12 ar  
    10     4    30 1   
    11     5    12 1   
    12     5    24 2   
    13     6     8 ar  
    14     6    21 ar  
    15     7    13 ar  
    16     7    21 ar  
    17     7    31 1   
    18     8    14 ar  
    19     8    32 1   
    20     9    10 1   
    21     9    15 1   
    22     9    16 2   
    23    10    17 1   
    24    10    22 2   
    25    11    26 1   
    26    11    33 1   
    27    11    34 1   
    28    11    35 1   
    29    12    19 ar  
    30    13    14 ar  
    31    13    36 1   
    32    14    37 1   
    33    15    23 1   
    34    15    38 1   
    35    15    39 1   
    36    16    18 1   
    37    16    25 1   
    38    17    40 1   
    39    17    41 1   
    40    17    42 1   
    41    18    43 1   
    42    18    44 1   
    43    18    45 1   
    44    19    20 ar  
    45    19    23 1   
    46    20    46 1   
    47    21    26 1   
    48    22    25 1   
@<TRIPOS>SUBSTRUCTURE
     1 4IV         1 TEMP              0 ****  ****    0 ROOT
