@<TRIPOS>MOLECULE
4IW
   46    46     1     0     0
SMALL
No Charge or Current Charge


@<TRIPOS>ATOM
      1 C1          17.6550    -9.3630    -2.1640 c6         1 4IW      -0.002500
      2 C2          16.4300    -9.1930    -1.2180 c6         1 4IW       0.014500
      3 C3          16.4570    -7.7860    -0.5540 c6         1 4IW       0.015500
      4 C4          17.8180    -7.5450     0.1610 c6         1 4IW      -0.027500
      5 C5          18.9590    -7.7800    -0.8720 c6         1 4IW      -0.001000
      6 C6          20.3840    -7.6010    -0.2740 c3         1 4IW       0.000000
      7 O2          15.2130    -9.3640    -1.9500 oh         1 4IW      -0.323500
      8 O3          15.3690    -7.6350     0.3640 oh         1 4IW      -0.307500
      9 O4          17.9520    -8.4340     1.2800 oh         1 4IW      -0.309500
     10 O5          18.8660    -9.1140    -1.4190 os         1 4IW      -0.223000
     11 O6          21.4060    -7.8230    -1.2510 oh         1 4IW      -0.325000
     12 SE1         17.6640   -10.9690    -3.0750 s          1 4IW      -0.007000
     13 SE2         19.9340   -11.3010     1.3190 s          1 4IW      -0.007000
     14 CAO         18.7780   -12.3610     0.3500 c6         1 4IW      -0.002500
     15 OAP         17.4430   -12.4260     0.8810 os         1 4IW      -0.223000
     16 CAQ         16.4490   -12.9460    -0.0400 c6         1 4IW      -0.001000
     17 CAW         15.1590   -13.2070     0.7980 c3         1 4IW       0.000000
     18 OAX         14.7380   -12.0420     1.5140 oh         1 4IW      -0.325000
     19 CAR         17.0020   -14.1940    -0.8210 c6         1 4IW      -0.027500
     20 OAV         15.9780   -15.1420    -1.1430 oh         1 4IW      -0.309500
     21 CAS         18.1860   -14.8620    -0.0720 c6         1 4IW       0.015500
     22 OAU         17.7350   -15.3840     1.1830 oh         1 4IW      -0.307500
     23 CAN         19.3240   -13.8120     0.1490 c6         1 4IW       0.014500
     24 OAT         20.2230   -13.7990    -0.9650 oh         1 4IW      -0.323500
     25 H1          17.5780    -8.6080    -2.9610 h2         1 4IW       0.112000
     26 H2          16.5000    -9.9500    -0.4230 h1         1 4IW       0.125500
     27 H3          16.3620    -7.0330    -1.3510 h1         1 4IW       0.079500
     28 H4          17.8610    -6.5010     0.5050 h1         1 4IW       0.080500
     29 H5          18.8520    -7.0570    -1.6950 h1         1 4IW       0.092500
     30 H6          20.4670    -6.5840     0.1320 h1         1 4IW       0.072750
     31 H7          20.5120    -8.3020     0.5620 h1         1 4IW       0.072750
     32 H8          14.4870    -9.1100    -1.3500 ho         1 4IW       0.231500
     33 H9          15.5260    -6.8120     0.8630 ho         1 4IW       0.209000
     34 H10         18.8160    -8.2540     1.6920 ho         1 4IW       0.206000
     35 H11         22.2680    -7.7150    -0.8060 ho         1 4IW       0.214000
     36 H12         18.7270   -11.8690    -0.6310 h2         1 4IW       0.112000
     37 H13         16.2130   -12.1630    -0.7730 h1         1 4IW       0.092500
     38 H14         14.3580   -13.5330     0.1220 h1         1 4IW       0.072750
     39 H15         15.3550   -14.0290     1.4980 h1         1 4IW       0.072750
     40 H16         13.9510   -12.2860     2.0360 ho         1 4IW       0.214000
     41 H17         17.4160   -13.8120    -1.7660 h1         1 4IW       0.080500
     42 H18         15.3480   -14.6980    -1.7400 ho         1 4IW       0.206000
     43 H19         18.5740   -15.6880    -0.6870 h1         1 4IW       0.079500
     44 H20         16.9160   -15.8810     1.0000 ho         1 4IW       0.209000
     45 H21         19.8750   -14.1020     1.0570 h1         1 4IW       0.125500
     46 H22         20.6350   -14.6820    -1.0160 ho         1 4IW       0.231500
@<TRIPOS>BOND
     1     1     2 1   
     2     1    10 1   
     3     1    12 1   
     4     1    25 1   
     5     2     3 1   
     6     2     7 1   
     7     2    26 1   
     8     3     4 1   
     9     3     8 1   
    10     3    27 1   
    11     4     5 1   
    12     4     9 1   
    13     4    28 1   
    14     5     6 1   
    15     5    10 1   
    16     5    29 1   
    17     6    11 1   
    18     6    30 1   
    19     6    31 1   
    20     7    32 1   
    21     8    33 1   
    22     9    34 1   
    23    11    35 1   
    24    13    14 1   
    25    14    15 1   
    26    14    23 1   
    27    14    36 1   
    28    15    16 1   
    29    16    17 1   
    30    16    19 1   
    31    16    37 1   
    32    17    18 1   
    33    17    38 1   
    34    17    39 1   
    35    18    40 1   
    36    19    20 1   
    37    19    21 1   
    38    19    41 1   
    39    20    42 1   
    40    21    22 1   
    41    21    23 1   
    42    21    43 1   
    43    22    44 1   
    44    23    24 1   
    45    23    45 1   
    46    24    46 1   
@<TRIPOS>SUBSTRUCTURE
     1 4IW         1 TEMP              0 ****  ****    0 ROOT
