@<TRIPOS>MOLECULE
4IW
   46    46     1     0     0
SMALL
abcg2


@<TRIPOS>ATOM
      1 C1          18.2970    -8.9010    -1.9060 c6         1 4IW      -0.002500
      2 C2          17.1600    -9.3100    -0.9760 c6         1 4IW       0.014500
      3 C3          16.7140    -8.0760    -0.1850 c6         1 4IW       0.015500
      4 C4          17.9040    -7.4050     0.5010 c6         1 4IW      -0.027500
      5 C5          18.9570    -7.0930    -0.5630 c6         1 4IW      -0.001000
      6 C6          20.1980    -6.4510     0.0160 c3         1 4IW       0.000000
      7 O2          16.1180    -9.8140    -1.7580 oh         1 4IW      -0.323500
      8 O3          15.7230    -8.4810     0.7230 oh         1 4IW      -0.307500
      9 O4          18.3910    -8.2680     1.5000 oh         1 4IW      -0.309500
     10 O5          19.3470    -8.2840    -1.2290 os         1 4IW      -0.223000
     11 O6          21.0440    -6.0500    -1.0340 oh         1 4IW      -0.325000
     12 SE1         19.0480   -10.3980    -2.9390 s          1 4IW      -0.007000
     13 SE2         19.8470   -11.7610    -1.2570 s          1 4IW      -0.007000
     14 CAO         18.4450   -13.1320    -1.1370 c6         1 4IW      -0.002500
     15 OAP         17.3190   -12.6030    -0.5210 os         1 4IW      -0.223000
     16 CAQ         16.1800   -13.4450    -0.6580 c6         1 4IW      -0.001000
     17 CAW         15.1180   -12.9010     0.2750 c3         1 4IW       0.000000
     18 OAX         14.7460   -11.6100    -0.1750 oh         1 4IW      -0.325000
     19 CAR         16.5640   -14.9280    -0.3940 c6         1 4IW      -0.027500
     20 OAV         15.5750   -15.6560     0.2930 oh         1 4IW      -0.309500
     21 CAS         17.8520   -15.0150     0.4140 c6         1 4IW       0.015500
     22 OAU         17.7370   -14.4210     1.6830 oh         1 4IW      -0.307500
     23 CAN         19.0020   -14.3190    -0.3380 c6         1 4IW       0.014500
     24 OAT         19.6280   -15.1600    -1.2680 oh         1 4IW      -0.323500
     25 H1          17.8910    -8.2440    -2.6970 h2         1 4IW       0.112000
     26 H2          17.5360   -10.0570    -0.2680 h1         1 4IW       0.125500
     27 H3          16.3110    -7.3480    -0.9070 h1         1 4IW       0.079500
     28 H4          17.5650    -6.4500     0.9310 h1         1 4IW       0.080500
     29 H5          18.5040    -6.3930    -1.2850 h1         1 4IW       0.092500
     30 H6          19.8740    -5.5970     0.6280 h1         1 4IW       0.072750
     31 H7          20.6970    -7.1600     0.6880 h1         1 4IW       0.072750
     32 H8          15.6490   -10.4850    -1.2330 ho         1 4IW       0.231500
     33 H9          15.3150    -7.6960     1.1010 ho         1 4IW       0.209000
     34 H10         18.8800    -7.7550     2.1500 ho         1 4IW       0.206000
     35 H11         21.8510    -5.6970    -0.6490 ho         1 4IW       0.214000
     36 H12         18.2210   -13.4640    -2.1620 h2         1 4IW       0.112000
     37 H13         15.8070   -13.3640    -1.6900 h1         1 4IW       0.092500
     38 H14         14.2490   -13.5630     0.2650 h1         1 4IW       0.072750
     39 H15         15.5030   -12.8710     1.2990 h1         1 4IW       0.072750
     40 H16         14.3210   -11.1340     0.5450 ho         1 4IW       0.214000
     41 H17         16.7740   -15.3990    -1.3640 h1         1 4IW       0.080500
     42 H18         14.8360   -15.8230    -0.3010 ho         1 4IW       0.206000
     43 H19         18.1180   -16.0790     0.5090 h1         1 4IW       0.079500
     44 H20         17.0580   -14.8900     2.1790 ho         1 4IW       0.209000
     45 H21         19.7070   -13.9780     0.4350 h1         1 4IW       0.125500
     46 H22         20.1360   -15.8250    -0.7920 ho         1 4IW       0.231500
@<TRIPOS>BOND
     1     1     2 1   
     2     1    10 1   
     3     1    12 1   
     4     1    25 1   
     5     2     3 1   
     6     2     7 1   
     7     2    26 1   
     8     3     4 1   
     9     3     8 1   
    10     3    27 1   
    11     4     5 1   
    12     4     9 1   
    13     4    28 1   
    14     5     6 1   
    15     5    10 1   
    16     5    29 1   
    17     6    11 1   
    18     6    30 1   
    19     6    31 1   
    20     7    32 1   
    21     8    33 1   
    22     9    34 1   
    23    11    35 1   
    24    13    14 1   
    25    14    15 1   
    26    14    23 1   
    27    14    36 1   
    28    15    16 1   
    29    16    17 1   
    30    16    19 1   
    31    16    37 1   
    32    17    18 1   
    33    17    38 1   
    34    17    39 1   
    35    18    40 1   
    36    19    20 1   
    37    19    21 1   
    38    19    41 1   
    39    20    42 1   
    40    21    22 1   
    41    21    23 1   
    42    21    43 1   
    43    22    44 1   
    44    23    24 1   
    45    23    45 1   
    46    24    46 1   
@<TRIPOS>SUBSTRUCTURE
     1 4IW         1 TEMP              0 ****  ****    0 ROOT
