@<TRIPOS>MOLECULE
4IX
   65    67     1     0     0
SMALL
abcg2


@<TRIPOS>ATOM
      1 C02         99.7800   -79.7280    -2.0160 c3         1 4IX       0.160600
      2 C03         98.6410   -80.7230    -1.9050 c6         1 4IX       0.182300
      3 C05         98.6770   -82.9920    -1.0600 c6         1 4IX       0.380300
      4 C08         98.4000   -83.7170     2.3020 c3         1 4IX      -0.105400
      5 C09         98.2880   -84.9410     3.1990 c3         1 4IX      -0.067400
      6 C10         97.5220   -84.6680     4.4970 c3         1 4IX      -0.090700
      7 C11         96.1110   -84.2450     4.2770 cc         1 4IX       0.203300
      8 C12         94.9790   -85.0120     4.1420 cd         1 4IX      -0.221000
      9 C15         91.7570   -83.7380     4.8820 c3         1 4IX      -0.083400
     10 C16         92.1670   -84.1970     6.2790 c3         1 4IX      -0.120700
     11 C17         91.9930   -85.6760     6.4900 ca         1 4IX       0.310300
     12 C18         93.0400   -86.4930     6.9220 ca         1 4IX      -0.112000
     13 C19         92.8190   -87.8410     7.0900 ca         1 4IX      -0.125000
     14 C20         91.5560   -88.3780     6.8330 ca         1 4IX       0.146100
     15 C22         90.5560   -87.4890     6.4090 ca         1 4IX       0.190700
     16 C23         89.1770   -87.8440     6.0270 ce         1 4IX       0.341200
     17 C29         97.1500   -82.9080    -0.9910 c6         1 4IX       0.079300
     18 C31         96.6690   -81.5010    -0.5840 c6         1 4IX       0.138300
     19 C33         97.7770   -80.4570    -0.6740 c6         1 4IX       0.150300
     20 N13         93.9950   -84.1240     3.9200 na         1 4IX       0.125800
     21 N24         88.3690   -88.7270     6.4510 n2         1 4IX      -0.324700
     22 N26         90.8030   -86.1870     6.2360 nb         1 4IX      -0.652000
     23 N27         94.4660   -82.8930     3.9180 nd         1 4IX      -0.212800
     24 N28         95.7390   -82.9540     4.1320 nc         1 4IX      -0.355000
     25 O01        100.5060   -80.0020    -3.1910 oh         1 4IX      -0.710000
     26 O04         99.2140   -82.0260    -1.8890 os         1 4IX      -0.425000
     27 O06         99.2680   -82.8600     0.2080 os         1 4IX      -0.487000
     28 O21         91.4070   -89.7000     6.9520 oh         1 4IX      -0.543100
     29 O25         88.8660   -89.4960     7.4720 oh         1 4IX      -0.544000
     30 O30         96.6030   -83.1770    -2.2630 oh         1 4IX      -0.711000
     31 O32         96.1450   -81.4320     0.7220 oh         1 4IX      -0.648000
     32 O34         97.2450   -79.1590    -0.8000 oh         1 4IX      -0.721000
     33 H021       100.4070   -79.8120    -1.1170 h1         1 4IX       0.034700
     34 H022        99.3640   -78.7160    -2.0280 h1         1 4IX       0.034700
     35 H031        98.0020   -80.6330    -2.7970 h1         1 4IX       0.075700
     36 H051        98.9660   -83.9610    -1.4960 h2         1 4IX       0.054700
     37 H072        98.7740   -84.8580     0.5160 h1         1 4IX       0.030700
     38 H071       100.2290   -84.2840     1.3170 h1         1 4IX       0.030700
     39 H082        98.8650   -82.8970     2.8570 hc         1 4IX       0.064700
     40 H081        97.4060   -83.3710     2.0140 hc         1 4IX       0.064700
     41 H091        97.7980   -85.7540     2.6540 hc         1 4IX       0.035700
     42 H092        99.2870   -85.3030     3.4580 hc         1 4IX       0.035700
     43 H101        97.5370   -85.5670     5.1170 hc         1 4IX       0.054200
     44 H102        98.0400   -83.8890     5.0630 hc         1 4IX       0.054200
     45 H121        94.8080   -86.0750     4.1870 h4         1 4IX       0.165000
     46 H141        92.2580   -83.9770     2.7950 h1         1 4IX       0.065200
     47 H142        92.4400   -85.4490     3.7360 h1         1 4IX       0.065200
     48 H152        91.8350   -82.6510     4.8220 hc         1 4IX       0.070200
     49 H151        90.7090   -83.9870     4.7060 hc         1 4IX       0.070200
     50 H161        93.2020   -83.9140     6.4840 hc         1 4IX       0.062700
     51 H162        91.5580   -83.6590     7.0100 hc         1 4IX       0.062700
     52 H181        94.0190   -86.0720     7.1140 ha         1 4IX       0.130000
     53 H191        93.6170   -88.4990     7.4120 ha         1 4IX       0.138000
     54 H231        88.7440   -87.2030     5.2670 h4         1 4IX       0.049800
     55 H291        96.7900   -83.6360    -0.2500 h1         1 4IX       0.043700
     56 H311        95.9060   -81.2170    -1.3220 h1         1 4IX       0.063700
     57 H331        98.4070   -80.5280     0.2220 h1         1 4IX       0.073700
     58 H011       101.1890   -79.3310    -3.2820 ho         1 4IX       0.499000
     59 H211        90.4670   -89.9180     7.1230 ho         1 4IX       0.501000
     60 H251        88.1900   -90.1660     7.6340 ho         1 4IX       0.485000
     61 H301        96.8590   -84.0660    -2.5300 ho         1 4IX       0.508000
     62 H321        95.3270   -81.9380     0.7560 ho         1 4IX       0.450000
     63 H341        96.7440   -78.9640    -0.0010 ho         1 4IX       0.521000
     64 C07         99.2060   -84.0010     1.0480 c3         1 4IX       0.175600
     65 C14         92.5720   -84.3680     3.7630 c3         1 4IX       0.081600
@<TRIPOS>BOND
     1     1     2 1   
     2     1    25 1   
     3     1    33 1   
     4     1    34 1   
     5     2    19 1   
     6     2    26 1   
     7     2    35 1   
     8     3    17 1   
     9     3    26 1   
    10     3    27 1   
    11     3    36 1   
    12     4     5 1   
    13     4    39 1   
    14     4    40 1   
    15     4    64 1   
    16     5     6 1   
    17     5    41 1   
    18     5    42 1   
    19     6     7 1   
    20     6    43 1   
    21     6    44 1   
    22     7     8 2   
    23     7    24 1   
    24     8    20 1   
    25     8    45 1   
    26     9    10 1   
    27     9    48 1   
    28     9    49 1   
    29     9    65 1   
    30    10    11 1   
    31    10    50 1   
    32    10    51 1   
    33    11    12 ar  
    34    11    22 ar  
    35    12    13 ar  
    36    12    52 1   
    37    13    14 ar  
    38    13    53 1   
    39    14    15 ar  
    40    14    28 1   
    41    15    16 1   
    42    15    22 ar  
    43    16    21 2   
    44    16    54 1   
    45    17    18 1   
    46    17    30 1   
    47    17    55 1   
    48    18    19 1   
    49    18    31 1   
    50    18    56 1   
    51    19    32 1   
    52    19    57 1   
    53    20    23 1   
    54    20    65 1   
    55    21    29 1   
    56    23    24 2   
    57    25    58 1   
    58    27    64 1   
    59    28    59 1   
    60    29    60 1   
    61    30    61 1   
    62    31    62 1   
    63    32    63 1   
    64    37    64 1   
    65    38    64 1   
    66    46    65 1   
    67    47    65 1   
@<TRIPOS>SUBSTRUCTURE
     1 4IX         1 TEMP              0 ****  ****    0 ROOT
