@<TRIPOS>MOLECULE
4IX
   65    67     1     0     0
SMALL
No Charge or Current Charge


@<TRIPOS>ATOM
      1 C02         98.3960   -79.9470    -0.4130 c3         1 4IX       0.160600
      2 C03         98.0880   -80.7710    -1.7110 c6         1 4IX       0.182300
      3 C05         98.6970   -83.1390    -1.3530 c6         1 4IX       0.380300
      4 C08         98.1810   -83.7760     2.3080 c3         1 4IX      -0.105400
      5 C09         98.0790   -84.9800     3.2730 c3         1 4IX      -0.067400
      6 C10         97.8930   -84.5740     4.7530 c3         1 4IX      -0.090700
      7 C11         96.6190   -83.8150     5.0170 cc         1 4IX       0.203300
      8 C12         95.3420   -84.2420     4.8330 cd         1 4IX      -0.221000
      9 C15         92.5060   -82.9920     6.6700 c3         1 4IX      -0.083400
     10 C16         92.8770   -84.1840     7.5930 c3         1 4IX      -0.120700
     11 C17         92.5640   -85.5520     6.9990 ca         1 4IX       0.310300
     12 C18         93.5820   -86.4970     6.7750 ca         1 4IX      -0.112000
     13 C19         93.2500   -87.7440     6.2220 ca         1 4IX      -0.125000
     14 C20         91.9070   -88.0130     5.9140 ca         1 4IX       0.146100
     15 C22         90.9240   -87.0080     6.1690 ca         1 4IX       0.190700
     16 C23         89.4580   -87.1720     5.8390 ce         1 4IX       0.341200
     17 C29         97.4270   -83.7030    -2.1200 c6         1 4IX       0.079300
     18 C31         96.5590   -82.5320    -2.6930 c6         1 4IX       0.138300
     19 C33         96.6130   -81.2980    -1.7570 c6         1 4IX       0.150300
     20 N13         94.5840   -83.1630     5.2260 na         1 4IX       0.125800
     21 N24         88.9290   -88.1990     5.2270 n2         1 4IX      -0.324700
     22 N26         91.2660   -85.7990     6.7060 nb         1 4IX      -0.652000
     23 N27         95.3940   -82.1290     5.6220 nd         1 4IX      -0.212800
     24 N28         96.6320   -82.5360     5.4940 nc         1 4IX      -0.355000
     25 O01         99.7490   -79.4450    -0.3590 oh         1 4IX      -0.710000
     26 O04         99.0650   -81.8490    -1.8930 os         1 4IX      -0.425000
     27 O06         98.4690   -82.9940     0.0630 os         1 4IX      -0.487000
     28 O21         91.5970   -89.2400     5.3950 oh         1 4IX      -0.543100
     29 O25         88.9450   -89.4090     5.9440 oh         1 4IX      -0.544000
     30 O30         97.7760   -84.5730    -3.2270 oh         1 4IX      -0.711000
     31 O32         95.2030   -82.9640    -2.9140 oh         1 4IX      -0.648000
     32 O34         95.6910   -80.2840    -2.2010 oh         1 4IX      -0.721000
     33 H021        98.1880   -80.5690     0.4670 h1         1 4IX       0.034700
     34 H022        97.6900   -79.1060    -0.3770 h1         1 4IX       0.034700
     35 H031        98.2240   -80.0810    -2.5560 h1         1 4IX       0.075700
     36 H051        99.5400   -83.8320    -1.4990 h2         1 4IX       0.054700
     37 H072        97.5580   -84.8320     0.5240 h1         1 4IX       0.030700
     38 H071        99.3240   -84.7750     0.7570 h1         1 4IX       0.030700
     39 H082        99.0130   -83.1320     2.6180 hc         1 4IX       0.064700
     40 H081        97.2660   -83.1760     2.3720 hc         1 4IX       0.064700
     41 H091        97.2440   -85.6220     2.9670 hc         1 4IX       0.035700
     42 H092        98.9900   -85.5850     3.1880 hc         1 4IX       0.035700
     43 H101        97.8980   -85.4820     5.3690 hc         1 4IX       0.054200
     44 H102        98.7580   -83.9820     5.0740 hc         1 4IX       0.054200
     45 H121        94.9370   -85.1770     4.4700 h4         1 4IX       0.165000
     46 H141        92.8270   -82.1590     4.6900 h1         1 4IX       0.065200
     47 H142        92.7000   -83.9220     4.7140 h1         1 4IX       0.065200
     48 H152        92.8230   -82.0590     7.1520 hc         1 4IX       0.070200
     49 H151        91.4140   -82.9350     6.5780 hc         1 4IX       0.070200
     50 H161        93.9430   -84.1190     7.8430 hc         1 4IX       0.062700
     51 H162        92.3430   -84.0710     8.5440 hc         1 4IX       0.062700
     52 H181        94.6130   -86.2650     7.0270 ha         1 4IX       0.130000
     53 H191        94.0190   -88.4910     6.0410 ha         1 4IX       0.138000
     54 H231        88.8440   -86.2870     6.0170 h4         1 4IX       0.049800
     55 H291        96.8080   -84.2580    -1.4010 h1         1 4IX       0.043700
     56 H311        97.0020   -82.2260    -3.6540 h1         1 4IX       0.063700
     57 H331        96.3310   -81.6330    -0.7470 h1         1 4IX       0.073700
     58 H011        99.8650   -79.0260     0.5250 ho         1 4IX       0.499000
     59 H211        90.6090   -89.3370     5.4530 ho         1 4IX       0.501000
     60 H251        88.3390   -90.0170     5.4460 ho         1 4IX       0.485000
     61 H301        98.1190   -85.4180    -2.8500 ho         1 4IX       0.508000
     62 H321        95.2710   -83.8020    -3.4260 ho         1 4IX       0.450000
     63 H341        94.9340   -80.7940    -2.5800 ho         1 4IX       0.521000
     64 C07         98.3940   -84.1970     0.8430 c3         1 4IX       0.175600
     65 C14         93.1160   -83.0590     5.2480 c3         1 4IX       0.081600
@<TRIPOS>BOND
     1     1     2 1   
     2     1    25 1   
     3     1    33 1   
     4     1    34 1   
     5     2    19 1   
     6     2    26 1   
     7     2    35 1   
     8     3    17 1   
     9     3    26 1   
    10     3    27 1   
    11     3    36 1   
    12     4     5 1   
    13     4    39 1   
    14     4    40 1   
    15     4    64 1   
    16     5     6 1   
    17     5    41 1   
    18     5    42 1   
    19     6     7 1   
    20     6    43 1   
    21     6    44 1   
    22     7     8 2   
    23     7    24 1   
    24     8    20 1   
    25     8    45 1   
    26     9    10 1   
    27     9    48 1   
    28     9    49 1   
    29     9    65 1   
    30    10    11 1   
    31    10    50 1   
    32    10    51 1   
    33    11    12 ar  
    34    11    22 ar  
    35    12    13 ar  
    36    12    52 1   
    37    13    14 ar  
    38    13    53 1   
    39    14    15 ar  
    40    14    28 1   
    41    15    16 1   
    42    15    22 ar  
    43    16    21 2   
    44    16    54 1   
    45    17    18 1   
    46    17    30 1   
    47    17    55 1   
    48    18    19 1   
    49    18    31 1   
    50    18    56 1   
    51    19    32 1   
    52    19    57 1   
    53    20    23 1   
    54    20    65 1   
    55    21    29 1   
    56    23    24 2   
    57    25    58 1   
    58    27    64 1   
    59    28    59 1   
    60    29    60 1   
    61    30    61 1   
    62    31    62 1   
    63    32    63 1   
    64    37    64 1   
    65    38    64 1   
    66    46    65 1   
    67    47    65 1   
@<TRIPOS>SUBSTRUCTURE
     1 4IX         1 TEMP              0 ****  ****    0 ROOT
