@<TRIPOS>MOLECULE
4IZ
   45    46     1     0     0
SMALL
No Charge or Current Charge


@<TRIPOS>ATOM
      1 C4          18.4870    -6.8960    -1.1630 c6         1 4IZ       0.126300
      2 C5          20.0510    -6.8440    -1.1100 c6         1 4IZ       0.148800
      3 C6          20.5970    -5.4630    -0.6190 c3         1 4IZ       0.172100
      4 C3          18.0500    -8.3270    -1.6100 c6         1 4IZ       0.159800
      5 O2          18.3290   -10.7430    -1.1730 oh         1 4IZ      -0.714500
      6 C2          18.7040    -9.4210    -0.7100 c6         1 4IZ       0.138800
      7 O3          16.6160    -8.4500    -1.5760 oh         1 4IZ      -0.644000
      8 O4          17.8810    -6.5870     0.1090 oh         1 4IZ      -0.699000
      9 O6          22.0370    -5.3960    -0.6060 oh         1 4IZ      -0.710500
     10 O5          20.5680    -7.8850    -0.2430 os         1 4IZ      -0.413000
     11 C1          20.2540    -9.2160    -0.6970 c6         1 4IZ       0.334300
     12 SE1         21.1210   -10.4140     0.4090 ss         1 4IZ      -0.489000
     13 CAN         22.8530    -9.9110     0.0100 c6         1 4IZ       0.334300
     14 OAO         23.0810   -10.1740    -1.3870 os         1 4IZ      -0.413000
     15 CAP         24.3680    -9.7000    -1.8600 c6         1 4IZ       0.148800
     16 CAV         24.4310    -9.8810    -3.4120 c3         1 4IZ       0.172100
     17 OAW         23.3830    -9.1750    -4.1070 oh         1 4IZ      -0.710500
     18 CAQ         25.5330   -10.4320    -1.1130 c6         1 4IZ       0.126300
     19 OAU         25.5790   -11.8430    -1.4120 oh         1 4IZ      -0.699000
     20 CAR         25.3440   -10.2340     0.4230 c6         1 4IZ       0.159800
     21 OAT         26.3390   -10.9760     1.1530 oh         1 4IZ      -0.644000
     22 CAM         23.9140   -10.6670     0.8740 c6         1 4IZ       0.138800
     23 OAS         23.7400   -10.4270     2.2930 oh         1 4IZ      -0.714500
     24 H1          18.1430    -6.1780    -1.9210 h1         1 4IZ       0.041200
     25 H2          20.4430    -7.0100    -2.1240 h1         1 4IZ       0.051700
     26 H3          20.1910    -4.6830    -1.2780 h1         1 4IZ       0.033200
     27 H4          20.2050    -5.2730     0.3890 h1         1 4IZ       0.033200
     28 H5          18.4050    -8.4800    -2.6410 h1         1 4IZ       0.045700
     29 H6          18.8560   -11.3870    -0.6410 ho         1 4IZ       0.527500
     30 H7          18.3500    -9.2760     0.3220 h1         1 4IZ       0.076200
     31 H8          16.4420    -9.4160    -1.6580 ho         1 4IZ       0.454500
     32 H9          16.9600    -6.9350     0.0400 ho         1 4IZ       0.511500
     33 H10         22.2800    -4.5220    -0.2220 ho         1 4IZ       0.506500
     34 H11         20.6520    -9.3660    -1.7120 h2         1 4IZ       0.063700
     35 H12         22.9270    -8.8290     0.2020 h2         1 4IZ       0.063700
     36 H13         24.4390    -8.6220    -1.6520 h1         1 4IZ       0.051700
     37 H14         24.3740   -10.9540    -3.6400 h1         1 4IZ       0.033200
     38 H15         25.4130    -9.5270    -3.7560 h1         1 4IZ       0.033200
     39 H16         23.4670    -9.4040    -5.0620 ho         1 4IZ       0.506500
     40 H17         26.4820    -9.9600    -1.4080 h1         1 4IZ       0.041200
     41 H18         26.1240   -12.2350    -0.6880 ho         1 4IZ       0.511500
     42 H19         25.4560    -9.1610     0.6400 h1         1 4IZ       0.045700
     43 H20         26.0230   -10.9720     2.0870 ho         1 4IZ       0.454500
     44 H21         23.7960   -11.7400     0.6630 h1         1 4IZ       0.076200
     45 H22         22.7910   -10.6130     2.4960 ho         1 4IZ       0.527500
@<TRIPOS>BOND
     1     1     2 1   
     2     1     4 1   
     3     1     8 1   
     4     1    24 1   
     5     2     3 1   
     6     2    10 1   
     7     2    25 1   
     8     3     9 1   
     9     3    26 1   
    10     3    27 1   
    11     4     6 1   
    12     4     7 1   
    13     4    28 1   
    14     5     6 1   
    15     5    29 1   
    16     6    11 1   
    17     6    30 1   
    18     7    31 1   
    19     8    32 1   
    20     9    33 1   
    21    10    11 1   
    22    11    12 1   
    23    11    34 1   
    24    12    13 1   
    25    13    14 1   
    26    13    22 1   
    27    13    35 1   
    28    14    15 1   
    29    15    16 1   
    30    15    18 1   
    31    15    36 1   
    32    16    17 1   
    33    16    37 1   
    34    16    38 1   
    35    17    39 1   
    36    18    19 1   
    37    18    20 1   
    38    18    40 1   
    39    19    41 1   
    40    20    21 1   
    41    20    22 1   
    42    20    42 1   
    43    21    43 1   
    44    22    23 1   
    45    22    44 1   
    46    23    45 1   
@<TRIPOS>SUBSTRUCTURE
     1 4IZ         1 TEMP              0 ****  ****    0 ROOT
