@<TRIPOS>MOLECULE
4IZ
   45    46     1     0     0
SMALL
abcg2


@<TRIPOS>ATOM
      1 C4          18.1830    -6.9080    -0.9170 c6         1 4IZ       0.126300
      2 C5          19.5980    -6.5590    -0.4550 c6         1 4IZ       0.148800
      3 C6          19.6300    -5.4040     0.5220 c3         1 4IZ       0.172100
      4 C3          18.2640    -8.1030    -1.8700 c6         1 4IZ       0.159800
      5 O2          19.1590   -10.2690    -2.1800 oh         1 4IZ      -0.714500
      6 C2          18.9850    -9.2740    -1.2090 c6         1 4IZ       0.138800
      7 O3          17.0040    -8.5460    -2.2950 oh         1 4IZ      -0.644000
      8 O4          17.3330    -7.2390     0.1520 oh         1 4IZ      -0.699000
      9 O6          20.9710    -5.0460     0.7540 oh         1 4IZ      -0.710500
     10 O5          20.1990    -7.6790     0.1730 os         1 4IZ      -0.413000
     11 C1          20.3400    -8.7660    -0.6900 c6         1 4IZ       0.334300
     12 SE1         21.2750   -10.1850     0.2860 ss         1 4IZ      -0.489000
     13 CAN         23.0750    -9.8700    -0.4140 c6         1 4IZ       0.334300
     14 OAO         23.2670   -10.7120    -1.5130 os         1 4IZ      -0.413000
     15 CAP         24.5180   -10.5090    -2.1490 c6         1 4IZ       0.148800
     16 CAV         24.5560   -11.3560    -3.4040 c3         1 4IZ       0.172100
     17 OAW         23.6050   -10.8540    -4.3140 oh         1 4IZ      -0.710500
     18 CAQ         25.6650   -10.8180    -1.1970 c6         1 4IZ       0.126300
     19 OAU         25.6470   -12.1900    -0.8920 oh         1 4IZ      -0.699000
     20 CAR         25.5120    -9.9520     0.0500 c6         1 4IZ       0.159800
     21 OAT         26.5350   -10.3040     0.9450 oh         1 4IZ      -0.644000
     22 CAM         24.1270   -10.1230     0.6720 c6         1 4IZ       0.138800
     23 OAS         24.0350    -9.1860     1.7140 oh         1 4IZ      -0.714500
     24 H1          17.7930    -6.0490    -1.4830 h1         1 4IZ       0.041200
     25 H2          20.1790    -6.2720    -1.3470 h1         1 4IZ       0.051700
     26 H3          19.0570    -4.5770     0.0830 h1         1 4IZ       0.033200
     27 H4          19.1220    -5.6950     1.4500 h1         1 4IZ       0.033200
     28 H5          18.8810    -7.7820    -2.7250 h1         1 4IZ       0.045700
     29 H6          19.5230   -11.0550    -1.7590 ho         1 4IZ       0.527500
     30 H7          18.3820    -9.6310    -0.3600 h1         1 4IZ       0.076200
     31 H8          16.5790    -7.8320    -2.7820 ho         1 4IZ       0.454500
     32 H9          16.9590    -6.4330     0.5190 ho         1 4IZ       0.511500
     33 H10         20.9810    -4.3200     1.3840 ho         1 4IZ       0.506500
     34 H11         20.9670    -8.5080    -1.5590 h2         1 4IZ       0.063700
     35 H12         23.1240    -8.8090    -0.7090 h2         1 4IZ       0.063700
     36 H13         24.6190    -9.4520    -2.4440 h1         1 4IZ       0.051700
     37 H14         24.3620   -12.4040    -3.1510 h1         1 4IZ       0.033200
     38 H15         25.5750   -11.3050    -3.8100 h1         1 4IZ       0.033200
     39 H16         23.5960   -11.4280    -5.0840 ho         1 4IZ       0.506500
     40 H17         26.6020   -10.5330    -1.6980 h1         1 4IZ       0.041200
     41 H18         26.3260   -12.3590    -0.2290 ho         1 4IZ       0.511500
     42 H19         25.6070    -8.9010    -0.2680 h1         1 4IZ       0.045700
     43 H20         26.4070    -9.8160     1.7650 ho         1 4IZ       0.454500
     44 H21         24.0330   -11.1540     1.0400 h1         1 4IZ       0.076200
     45 H22         23.3200    -9.4380     2.3080 ho         1 4IZ       0.527500
@<TRIPOS>BOND
     1     1     2 1   
     2     1     4 1   
     3     1     8 1   
     4     1    24 1   
     5     2     3 1   
     6     2    10 1   
     7     2    25 1   
     8     3     9 1   
     9     3    26 1   
    10     3    27 1   
    11     4     6 1   
    12     4     7 1   
    13     4    28 1   
    14     5     6 1   
    15     5    29 1   
    16     6    11 1   
    17     6    30 1   
    18     7    31 1   
    19     8    32 1   
    20     9    33 1   
    21    10    11 1   
    22    11    12 1   
    23    11    34 1   
    24    12    13 1   
    25    13    14 1   
    26    13    22 1   
    27    13    35 1   
    28    14    15 1   
    29    15    16 1   
    30    15    18 1   
    31    15    36 1   
    32    16    17 1   
    33    16    37 1   
    34    16    38 1   
    35    17    39 1   
    36    18    19 1   
    37    18    20 1   
    38    18    40 1   
    39    19    41 1   
    40    20    21 1   
    41    20    22 1   
    42    20    42 1   
    43    21    43 1   
    44    22    23 1   
    45    22    44 1   
    46    23    45 1   
@<TRIPOS>SUBSTRUCTURE
     1 4IZ         1 TEMP              0 ****  ****    0 ROOT
