@<TRIPOS>MOLECULE
4J0
  148   156     1     0     0
SMALL
No Charge or Current Charge


@<TRIPOS>ATOM
      1 O63         15.7260     3.1520     3.3080 oh         1 4J0      -0.731000
      2 C62         16.3770     3.7570     2.1610 c6         1 4J0       0.109300
      3 C59         17.1530     5.0420     2.5810 c6         1 4J0       0.141300
      4 O58         18.1350     4.7140     3.5810 oh         1 4J0      -0.668000
      5 C55         17.8310     5.7140     1.3460 c6         1 4J0       0.145300
      6 O57         18.9320     4.8890     0.9110 oh         1 4J0      -0.708000
      7 C56         16.7530     5.9270     0.2270 c6         1 4J0       0.184300
      8 C60         17.3540     6.5360    -1.0840 c3         1 4J0       0.171600
      9 O61         16.3620     6.7980    -2.1000 oh         1 4J0      -0.718000
     10 O54         16.0870     4.6750    -0.0960 os         1 4J0      -0.457000
     11 C52         15.3700     4.1160     1.0200 c6         1 4J0       0.371300
     12 O53         14.6630     2.9380     0.5960 os         1 4J0      -0.454000
     13 C51         13.6120     3.1430    -0.3620 c3         1 4J0       0.168600
     14 C64         12.9710     1.7730    -0.6500 c3         1 4J0      -0.083400
     15 C65         11.8140     1.8500    -1.6720 c3         1 4J0      -0.087700
     16 C40         11.1820     0.5120    -1.9450 cc         1 4J0       0.207300
     17 C39         10.0200     0.0210    -1.4400 cd         1 4J0      -0.212000
     18 N43         11.7560    -0.3890    -2.7960 nc         1 4J0      -0.356000
     19 N44         10.9950    -1.4530    -2.8490 nd         1 4J0      -0.193800
     20 N33          9.9300    -1.2260    -2.0170 na         1 4J0       0.134800
     21 C35          8.8270    -2.2000    -1.8480 c6         1 4J0       0.050300
     22 C24          7.4940    -1.6370    -2.4260 c6         1 4J0       0.159300
     23 O27          6.4220    -2.5890    -2.2070 os         1 4J0      -0.417000
     24 C26          7.5750    -1.3350    -3.9610 c3         1 4J0       0.167600
     25 O50          6.3290    -0.8620    -4.5140 oh         1 4J0      -0.713000
     26 C25          8.6350    -2.5850    -0.3530 c6         1 4J0       0.166300
     27 O21          9.8060    -3.2140     0.1870 oh         1 4J0      -0.640000
     28 C15          7.4190    -3.5410    -0.1780 c6         1 4J0       0.108300
     29 O49          7.2310    -3.8400     1.2250 oh         1 4J0      -0.725000
     30 C28          6.1530    -2.8890    -0.8170 c6         1 4J0       0.127000
     31 C30          4.9350    -3.7860    -0.6820 cc         1 4J0       0.197300
     32 C17          3.7040    -3.3780    -0.2730 cd         1 4J0      -0.178000
     33 N32          4.9380    -5.1260    -0.9570 nc         1 4J0      -0.344000
     34 N9           3.7360    -5.5940    -0.7350 nd         1 4J0      -0.186800
     35 N20          2.9660    -4.5410    -0.3090 na         1 4J0       0.130800
     36 C4           1.5260    -4.6840     0.0050 c6         1 4J0       0.047300
     37 C7           0.6490    -3.9180    -1.0310 c6         1 4J0       0.166300
     38 O31         -0.7500    -4.0440    -0.6760 os         1 4J0      -0.426000
     39 C47          0.8280    -4.4480    -2.4940 c3         1 4J0       0.169600
     40 O48         -0.0280    -3.7810    -3.4450 oh         1 4J0      -0.711000
     41 C6           1.2050    -4.1840     1.4450 c6         1 4J0       0.164300
     42 O45          1.9110    -4.9440     2.4350 oh         1 4J0      -0.639000
     43 C12         -0.3220    -4.2630     1.7380 c6         1 4J0       0.099300
     44 O46         -0.5870    -3.7420     3.0670 oh         1 4J0      -0.718000
     45 C22         -1.0910    -3.4890     0.6170 c6         1 4J0       0.294300
     46 N13         -2.5650    -3.5710     0.7800 na         1 4J0       0.113800
     47 C29         -3.4270    -2.5000     0.7450 cc         1 4J0      -0.161000
     48 N18         -3.2440    -4.7400     0.9870 nc         1 4J0      -0.191800
     49 N16         -4.5080    -4.4310     1.0910 nd         1 4J0      -0.329000
     50 C8          -4.6550    -3.0660     0.9460 cd         1 4J0       0.191300
     51 C2          -5.9650    -2.2950     0.9890 c6         1 4J0       0.128000
     52 C34         -7.1330    -3.0710     0.3060 c6         1 4J0       0.105300
     53 O5          -6.8600    -3.3510    -1.0860 oh         1 4J0      -0.724000
     54 C36         -8.4440    -2.2400     0.4320 c6         1 4J0       0.168300
     55 O3          -9.5250    -2.9840    -0.1480 oh         1 4J0      -0.639000
     56 O1          -6.3110    -2.0240     2.3680 os         1 4J0      -0.410000
     57 C19         -7.4810    -1.1840     2.5430 c6         1 4J0       0.158300
     58 C23         -7.6480    -0.8930     4.0740 c3         1 4J0       0.168600
     59 O11         -6.4750    -0.3020     4.6710 oh         1 4J0      -0.711000
     60 C14         -8.7280    -1.8760     1.9180 c6         1 4J0       0.049300
     61 N10         -9.9290    -1.0180     2.0440 na         1 4J0       0.133800
     62 C42        -10.1110     0.2110     1.4550 cc         1 4J0      -0.212000
     63 N37        -11.0000    -1.3520     2.8200 nc         1 4J0      -0.190800
     64 N38        -11.8570    -0.3710     2.7270 nd         1 4J0      -0.357000
     65 C41        -11.3430     0.5990     1.8960 cd         1 4J0       0.207300
     66 C80        -12.0840     1.8710     1.5800 c3         1 4J0      -0.088700
     67 C79        -13.1820     1.6710     0.5120 c3         1 4J0      -0.079400
     68 C69        -13.9390     2.9690     0.1750 c3         1 4J0       0.165600
     69 O67        -14.9240     2.6520    -0.8210 os         1 4J0      -0.452000
     70 C75        -15.7220     3.7510    -1.2930 c6         1 4J0       0.370300
     71 O68        -16.5370     4.2520    -0.2160 os         1 4J0      -0.457000
     72 C66        -17.3050     5.4290    -0.5860 c6         1 4J0       0.183300
     73 C78        -18.0170     5.9930     0.6890 c3         1 4J0       0.171600
     74 O74        -17.1000     6.3610     1.7420 oh         1 4J0      -0.718000
     75 C70        -18.3090     5.1010    -1.7450 c6         1 4J0       0.145300
     76 O73        -19.3430     4.1790    -1.3430 oh         1 4J0      -0.709000
     77 C71        -17.5180     4.4830    -2.9410 c6         1 4J0       0.140300
     78 O77        -18.4210     4.0500    -3.9740 oh         1 4J0      -0.668000
     79 C72        -16.6410     3.2840    -2.4690 c6         1 4J0       0.109300
     80 O76        -15.8870     2.7320    -3.5780 oh         1 4J0      -0.731000
     81 H63         15.1140     2.4670     2.9440 ho         1 4J0       0.527000
     82 H62         17.1000     3.0460     1.7330 h1         1 4J0       0.077700
     83 H59         16.4260     5.7560     2.9990 h1         1 4J0       0.046700
     84 H58         17.6720     4.0910     4.1900 ho         1 4J0       0.470000
     85 H55         18.2060     6.7020     1.6540 h1         1 4J0       0.048700
     86 H57         19.3240     4.5490     1.7520 ho         1 4J0       0.522000
     87 H56         15.9970     6.6340     0.6000 h1         1 4J0       0.046700
     88 H60         17.8720     7.4680    -0.8180 h1         1 4J0       0.039200
     89 H7P         18.1120     5.8420    -1.4700 h1         1 4J0       0.039200
     90 H61         16.8480     7.0910    -2.9070 ho         1 4J0       0.505000
     91 H52         14.6440     4.8530     1.3950 h2         1 4J0       0.026700
     92 H51         12.8530     3.8290     0.0370 h1         1 4J0       0.034700
     93 H7O         14.0080     3.5660    -1.2940 h1         1 4J0       0.034700
     94 H7Q         13.7420     1.0900    -1.0280 hc         1 4J0       0.060700
     95 H64         12.5940     1.3480     0.2880 hc         1 4J0       0.060700
     96 H7R         11.0500     2.5430    -1.2990 hc         1 4J0       0.051200
     97 H65         12.1880     2.2760    -2.6110 hc         1 4J0       0.051200
     98 H39          9.2960     0.4390    -0.7520 h4         1 4J0       0.164000
     99 H35          9.0870    -3.1090    -2.4070 h1         1 4J0       0.118700
    100 H24          7.2390    -0.7000    -1.9100 h1         1 4J0       0.050700
    101 H7M          8.3610    -0.5850    -4.1270 h1         1 4J0       0.041700
    102 H26          7.8910    -2.2540    -4.4730 h1         1 4J0       0.041700
    103 H50          6.4590    -0.7730    -5.4870 ho         1 4J0       0.510000
    104 H25          8.4210    -1.6660     0.2140 h1         1 4J0       0.039700
    105 H21          9.4930    -3.6440     1.0170 ho         1 4J0       0.466000
    106 H15          7.6360    -4.4670    -0.7330 h1         1 4J0       0.080700
    107 H49          6.5660    -4.5690     1.2810 ho         1 4J0       0.526000
    108 H28          5.9500    -1.9400    -0.2990 h1         1 4J0       0.049700
    109 H17          3.3240    -2.4090     0.0230 h4         1 4J0       0.170000
    110 H4           1.2720    -5.7510    -0.0520 h1         1 4J0       0.123700
    111 H7           0.9180    -2.8520    -1.0230 h1         1 4J0       0.058700
    112 H7N          1.8790    -4.3170    -2.7860 h1         1 4J0       0.046200
    113 H47          0.6230    -5.5270    -2.4930 h1         1 4J0       0.046200
    114 H48          0.0980    -4.2290    -4.3140 ho         1 4J0       0.516000
    115 H6           1.5030    -3.1270     1.5170 h1         1 4J0       0.043700
    116 H45          1.4660    -4.7220     3.2860 ho         1 4J0       0.470000
    117 H12         -0.6200    -5.3220     1.6790 h1         1 4J0       0.092700
    118 H46         -1.5070    -4.0050     3.3170 ho         1 4J0       0.534000
    119 H22         -0.8320    -2.4210     0.6470 h2         1 4J0       0.065700
    120 H29         -3.1190    -1.4750     0.5890 h4         1 4J0       0.176000
    121 H2          -5.8260    -1.3330     0.4740 h1         1 4J0       0.050700
    122 H34         -7.2770    -4.0140     0.8580 h1         1 4J0       0.078700
    123 H53         -6.1190    -4.0040    -1.1120 ho         1 4J0       0.524000
    124 H36         -8.3020    -1.3050    -0.1310 h1         1 4J0       0.040700
    125 H3          -9.1400    -3.3830    -0.9630 ho         1 4J0       0.465000
    126 H19         -7.3000    -0.2260     2.0340 h1         1 4J0       0.050700
    127 H7L         -8.5090    -0.2240     4.2080 h1         1 4J0       0.041200
    128 H23         -7.8910    -1.8390     4.5760 h1         1 4J0       0.041200
    129 H11         -6.6500    -0.2250     5.6380 ho         1 4J0       0.510000
    130 H14         -8.9170    -2.8070     2.4700 h1         1 4J0       0.119700
    131 H42         -9.3950     0.6900     0.8020 h4         1 4J0       0.164000
    132 H81        -12.5380     2.2700     2.4950 hc         1 4J0       0.051200
    133 H80        -11.3750     2.6310     1.2290 hc         1 4J0       0.051200
    134 H8A        -12.7270     1.2730    -0.4030 hc         1 4J0       0.061700
    135 H8B        -13.9000     0.9210     0.8680 hc         1 4J0       0.061700
    136 H69        -14.4130     3.3630     1.0840 h1         1 4J0       0.034200
    137 H7S        -13.2330     3.7210    -0.2020 h1         1 4J0       0.034200
    138 H75        -15.0550     4.5510    -1.6490 h2         1 4J0       0.026700
    139 H66        -16.6060     6.2020    -0.9390 h1         1 4J0       0.046700
    140 H78        -18.6110     6.8670     0.3870 h1         1 4J0       0.039200
    141 H79        -18.7220     5.2330     1.0550 h1         1 4J0       0.039200
    142 H74        -17.6450     6.6150     2.5230 ho         1 4J0       0.506000
    143 H70        -18.7640     6.0440    -2.0840 h1         1 4J0       0.048700
    144 H73        -19.6640     3.7920    -2.1940 ho         1 4J0       0.522000
    145 H71        -16.8460     5.2590    -3.3390 h1         1 4J0       0.047700
    146 H77        -17.8750     3.4670    -4.5540 ho         1 4J0       0.470000
    147 H72        -17.3090     2.5110    -2.0600 h1         1 4J0       0.077700
    148 H76        -15.2270     2.1130    -3.1790 ho         1 4J0       0.526000
@<TRIPOS>BOND
     1     1     2 1   
     2     1    81 1   
     3     2     3 1   
     4     2    11 1   
     5     2    82 1   
     6     3     4 1   
     7     3     5 1   
     8     3    83 1   
     9     4    84 1   
    10     5     6 1   
    11     5     7 1   
    12     5    85 1   
    13     6    86 1   
    14     7     8 1   
    15     7    10 1   
    16     7    87 1   
    17     8     9 1   
    18     8    88 1   
    19     8    89 1   
    20     9    90 1   
    21    10    11 1   
    22    11    12 1   
    23    11    91 1   
    24    12    13 1   
    25    13    14 1   
    26    13    92 1   
    27    13    93 1   
    28    14    15 1   
    29    14    94 1   
    30    14    95 1   
    31    15    16 1   
    32    15    96 1   
    33    15    97 1   
    34    16    17 2   
    35    16    18 1   
    36    17    20 1   
    37    17    98 1   
    38    18    19 2   
    39    19    20 1   
    40    20    21 1   
    41    21    22 1   
    42    21    26 1   
    43    21    99 1   
    44    22    23 1   
    45    22    24 1   
    46    22   100 1   
    47    23    30 1   
    48    24    25 1   
    49    24   101 1   
    50    24   102 1   
    51    25   103 1   
    52    26    27 1   
    53    26    28 1   
    54    26   104 1   
    55    27   105 1   
    56    28    29 1   
    57    28    30 1   
    58    28   106 1   
    59    29   107 1   
    60    30    31 1   
    61    30   108 1   
    62    31    32 2   
    63    31    33 1   
    64    32    35 1   
    65    32   109 1   
    66    33    34 2   
    67    34    35 1   
    68    35    36 1   
    69    36    37 1   
    70    36    41 1   
    71    36   110 1   
    72    37    38 1   
    73    37    39 1   
    74    37   111 1   
    75    38    45 1   
    76    39    40 1   
    77    39   112 1   
    78    39   113 1   
    79    40   114 1   
    80    41    42 1   
    81    41    43 1   
    82    41   115 1   
    83    42   116 1   
    84    43    44 1   
    85    43    45 1   
    86    43   117 1   
    87    44   118 1   
    88    45    46 1   
    89    45   119 1   
    90    46    47 1   
    91    46    48 1   
    92    47    50 2   
    93    47   120 1   
    94    48    49 2   
    95    49    50 1   
    96    50    51 1   
    97    51    52 1   
    98    51    56 1   
    99    51   121 1   
   100    52    53 1   
   101    52    54 1   
   102    52   122 1   
   103    53   123 1   
   104    54    55 1   
   105    54    60 1   
   106    54   124 1   
   107    55   125 1   
   108    56    57 1   
   109    57    58 1   
   110    57    60 1   
   111    57   126 1   
   112    58    59 1   
   113    58   127 1   
   114    58   128 1   
   115    59   129 1   
   116    60    61 1   
   117    60   130 1   
   118    61    62 1   
   119    61    63 1   
   120    62    65 2   
   121    62   131 1   
   122    63    64 2   
   123    64    65 1   
   124    65    66 1   
   125    66    67 1   
   126    66   132 1   
   127    66   133 1   
   128    67    68 1   
   129    67   134 1   
   130    67   135 1   
   131    68    69 1   
   132    68   136 1   
   133    68   137 1   
   134    69    70 1   
   135    70    71 1   
   136    70    79 1   
   137    70   138 1   
   138    71    72 1   
   139    72    73 1   
   140    72    75 1   
   141    72   139 1   
   142    73    74 1   
   143    73   140 1   
   144    73   141 1   
   145    74   142 1   
   146    75    76 1   
   147    75    77 1   
   148    75   143 1   
   149    76   144 1   
   150    77    78 1   
   151    77    79 1   
   152    77   145 1   
   153    78   146 1   
   154    79    80 1   
   155    79   147 1   
   156    80   148 1   
@<TRIPOS>SUBSTRUCTURE
     1 4J0         1 TEMP              0 ****  ****    0 ROOT
