@<TRIPOS>MOLECULE
4J0
  148   156     1     0     0
SMALL
bcc


@<TRIPOS>ATOM
      1 O63         16.4390     2.2920     2.6900 oh         1 4J0      -0.608800
      2 C62         17.1220     2.9020     1.6220 c6         1 4J0       0.086100
      3 C59         17.8930     4.0860     2.1910 c6         1 4J0       0.118100
      4 O58         18.8860     3.6850     3.1030 oh         1 4J0      -0.605800
      5 C55         18.5720     4.8670     1.0690 c6         1 4J0       0.122100
      6 O57         19.5910     4.1190     0.4530 oh         1 4J0      -0.585800
      7 C56         17.5270     5.2380     0.0220 c6         1 4J0       0.161100
      8 C60         18.1310     5.9680    -1.1590 c3         1 4J0       0.148400
      9 O61         17.0860     6.4640    -1.9610 oh         1 4J0      -0.595800
     10 O54         16.8600     4.0880    -0.4560 os         1 4J0      -0.410600
     11 C52         16.1570     3.4060     0.5510 c6         1 4J0       0.324900
     12 O53         15.5280     2.3170    -0.0080 os         1 4J0      -0.407600
     13 C51         14.3750     2.6010    -0.7820 c3         1 4J0       0.145400
     14 C64         13.5570     1.3330    -0.9140 c3         1 4J0      -0.083400
     15 C65         12.3160     1.5570    -1.7800 c3         1 4J0      -0.087700
     16 C40         11.4860     0.3270    -1.8960 cc         1 4J0       0.272600
     17 C39         10.2700     0.0400    -1.3320 cd         1 4J0      -0.244600
     18 N43         11.8800    -0.7660    -2.5880 nc         1 4J0      -0.356000
     19 N44         10.9860    -1.6870    -2.4810 nd         1 4J0      -0.193800
     20 N33         10.0080    -1.2200    -1.7240 na         1 4J0       0.113400
     21 C35          8.8430    -2.0350    -1.4480 c6         1 4J0       0.021000
     22 C24          7.5910    -1.4810    -2.1510 c6         1 4J0       0.136100
     23 O27          6.4820    -2.2840    -1.8270 os         1 4J0      -0.370600
     24 C26          7.7430    -1.4900    -3.6580 c3         1 4J0       0.144400
     25 O50          6.6070    -0.8850    -4.2230 oh         1 4J0      -0.590800
     26 C25          8.6160    -2.1410     0.0560 c6         1 4J0       0.143100
     27 O21          9.7510    -2.7330     0.6190 oh         1 4J0      -0.577800
     28 C15          7.3460    -2.9400     0.3180 c6         1 4J0       0.085100
     29 O49          7.1180    -2.9290     1.7040 oh         1 4J0      -0.602800
     30 C28          6.1850    -2.2970    -0.4450 c6         1 4J0       0.103800
     31 C30          4.9100    -3.0350    -0.2450 cc         1 4J0       0.262600
     32 C17          3.6720    -2.5460     0.0780 cd         1 4J0      -0.210600
     33 N32          4.8090    -4.3780    -0.3510 nc         1 4J0      -0.344000
     34 N9           3.5970    -4.7330    -0.1180 nd         1 4J0      -0.186800
     35 N20          2.8950    -3.6390     0.1440 na         1 4J0       0.109400
     36 C4           1.4780    -3.7340     0.4300 c6         1 4J0       0.018000
     37 C7           0.6370    -3.1720    -0.7290 c6         1 4J0       0.143100
     38 O31         -0.7310    -3.2610    -0.3890 os         1 4J0      -0.379600
     39 C47          0.8430    -3.9520    -2.0100 c3         1 4J0       0.146400
     40 O48          0.1000    -3.3330    -3.0280 oh         1 4J0      -0.588800
     41 C6           1.1530    -3.0100     1.7320 c6         1 4J0       0.141100
     42 O45          1.8880    -3.6150     2.7530 oh         1 4J0      -0.576800
     43 C12         -0.3500    -3.0790     1.9830 c6         1 4J0       0.076100
     44 O46         -0.6390    -2.3060     3.1150 oh         1 4J0      -0.595800
     45 C22         -1.0650    -2.5240     0.7490 c6         1 4J0       0.241800
     46 N13         -2.4960    -2.5830     0.8970 na         1 4J0       0.092400
     47 C29         -3.3900    -1.5910     0.7390 cc         1 4J0      -0.193600
     48 N18         -3.0990    -3.7170     1.2270 nc         1 4J0      -0.191800
     49 N16         -4.3600    -3.4900     1.2820 nd         1 4J0      -0.329000
     50 C8          -4.5940    -2.1870     0.9950 cd         1 4J0       0.256600
     51 C2          -5.9590    -1.6010     0.9620 c6         1 4J0       0.104800
     52 C34         -6.8050    -2.1850    -0.1770 c6         1 4J0       0.082100
     53 O5          -6.2510    -1.8790    -1.4300 oh         1 4J0      -0.601800
     54 C36         -8.2000    -1.5730    -0.1300 c6         1 4J0       0.145100
     55 O3          -9.0760    -2.1530    -1.0530 oh         1 4J0      -0.576800
     56 O1          -6.5820    -1.8650     2.2000 os         1 4J0      -0.363600
     57 C19         -7.8350    -1.2400     2.3390 c6         1 4J0       0.135100
     58 C23         -8.3410    -1.5280     3.7370 c3         1 4J0       0.145400
     59 O11         -7.4480    -0.9560     4.6580 oh         1 4J0      -0.588800
     60 C14         -8.7890    -1.7810     1.2620 c6         1 4J0       0.020000
     61 N10        -10.0960    -1.1670     1.3560 na         1 4J0       0.112400
     62 C42        -10.4390     0.1210     1.1700 cc         1 4J0      -0.244600
     63 N37        -11.1480    -1.8870     1.7080 nc         1 4J0      -0.190800
     64 N38        -12.1670    -1.1020     1.7540 nd         1 4J0      -0.357000
     65 C41        -11.7850     0.1550     1.4320 cd         1 4J0       0.272600
     66 C80        -12.7340     1.3000     1.3820 c3         1 4J0      -0.088700
     67 C79        -13.6970     1.2190     0.1970 c3         1 4J0      -0.079400
     68 C69        -14.6760     2.3740     0.2260 c3         1 4J0       0.142400
     69 O67        -15.5570     2.2600    -0.8790 os         1 4J0      -0.405600
     70 C75        -16.3770     3.3470    -1.0850 c6         1 4J0       0.323900
     71 O68        -17.3830     3.3440    -0.1050 os         1 4J0      -0.410600
     72 C66        -18.2570     4.4480    -0.2140 c6         1 4J0       0.160100
     73 C78        -19.2060     4.4290     0.9660 c3         1 4J0       0.148400
     74 O74        -18.4670     4.6640     2.1410 oh         1 4J0      -0.595800
     75 C70        -18.9920     4.4280    -1.5490 c6         1 4J0       0.122100
     76 O73        -19.8460     3.3120    -1.5850 oh         1 4J0      -0.586800
     77 C71        -17.9650     4.3920    -2.6780 c6         1 4J0       0.117100
     78 O77        -18.6650     4.2960    -3.8940 oh         1 4J0      -0.605800
     79 C72        -16.9970     3.2330    -2.4760 c6         1 4J0       0.086100
     80 O76        -16.0220     3.3140    -3.4880 oh         1 4J0      -0.608800
     81 H63         16.0880     1.4480     2.3890 ho         1 4J0       0.428000
     82 H62         17.8280     2.2080     1.1460 h1         1 4J0       0.077700
     83 H59         17.1710     4.7630     2.6740 h1         1 4J0       0.046700
     84 H58         18.4830     3.1020     3.7550 ho         1 4J0       0.431000
     85 H55         18.9670     5.8030     1.4920 h1         1 4J0       0.048700
     86 H57         20.1930     3.8150     1.1410 ho         1 4J0       0.423000
     87 H56         16.8100     5.9150     0.5130 h1         1 4J0       0.046700
     88 H60         18.7620     6.7770    -0.7680 h1         1 4J0       0.039200
     89 H7P         18.7850     5.2900    -1.7190 h1         1 4J0       0.039200
     90 H61         17.4760     6.8780    -2.7350 ho         1 4J0       0.406000
     91 H52         15.4170     4.0890     1.0150 h2         1 4J0       0.026700
     92 H51         13.7790     3.3840    -0.2960 h1         1 4J0       0.034700
     93 H7O         14.6580     2.9750    -1.7720 h1         1 4J0       0.034700
     94 H7Q         14.1690     0.5430    -1.3570 hc         1 4J0       0.060700
     95 H64         13.2530     0.9890     0.0780 hc         1 4J0       0.060700
     96 H7R         11.7070     2.3580    -1.3570 hc         1 4J0       0.051200
     97 H65         12.6200     1.8880    -2.7770 hc         1 4J0       0.051200
     98 H39          9.6120     0.6220    -0.7090 h4         1 4J0       0.182000
     99 H35          9.0680    -3.0280    -1.8480 h1         1 4J0       0.118700
    100 H24          7.4210    -0.4460    -1.8090 h1         1 4J0       0.050700
    101 H7M          8.6600    -0.9560    -3.9290 h1         1 4J0       0.041700
    102 H26          7.8670    -2.5290    -3.9930 h1         1 4J0       0.041700
    103 H50          6.7190    -0.8760    -5.1770 ho         1 4J0       0.411000
    104 H25          8.4540    -1.1270     0.4600 h1         1 4J0       0.039700
    105 H21          9.6310    -2.7660     1.5740 ho         1 4J0       0.427000
    106 H15          7.4910    -3.9620    -0.0580 h1         1 4J0       0.080700
    107 H49          6.5790    -3.6910     1.9370 ho         1 4J0       0.427000
    108 H28          6.0490    -1.2680    -0.0770 h1         1 4J0       0.049700
    109 H17          3.3220    -1.5440     0.2600 h4         1 4J0       0.188000
    110 H4           1.2660    -4.8000     0.5470 h1         1 4J0       0.123700
    111 H7           0.9140    -2.1190    -0.8960 h1         1 4J0       0.058700
    112 H7N          1.9130    -3.9670    -2.2420 h1         1 4J0       0.046200
    113 H47          0.5360    -4.9930    -1.8440 h1         1 4J0       0.046200
    114 H48          0.2510    -3.8200    -3.8430 ho         1 4J0       0.417000
    115 H6           1.4230    -1.9470     1.6230 h1         1 4J0       0.043700
    116 H45          1.7550    -3.1110     3.5630 ho         1 4J0       0.431000
    117 H12         -0.6350    -4.1300     2.1180 h1         1 4J0       0.092700
    118 H46         -1.3800    -2.6970     3.5870 ho         1 4J0       0.435000
    119 H22         -0.8100    -1.4630     0.6260 h2         1 4J0       0.065700
    120 H29         -3.1170    -0.5850     0.4700 h4         1 4J0       0.194000
    121 H2          -5.8660    -0.5160     0.7990 h1         1 4J0       0.050700
    122 H34         -6.8950    -3.2700    -0.0280 h1         1 4J0       0.078700
    123 H53         -5.5670    -2.5220    -1.6380 ho         1 4J0       0.425000
    124 H36         -8.0940    -0.4890    -0.3080 h1         1 4J0       0.040700
    125 H3          -8.7460    -1.9710    -1.9400 ho         1 4J0       0.426000
    126 H19         -7.7280    -0.1500     2.2090 h1         1 4J0       0.050700
    127 H7L         -9.3500    -1.1120     3.8410 h1         1 4J0       0.041200
    128 H23         -8.4290    -2.6150     3.8640 h1         1 4J0       0.041200
    129 H11         -7.7910    -1.1140     5.5420 ho         1 4J0       0.411000
    130 H14         -8.9500    -2.8490     1.4310 h1         1 4J0       0.119700
    131 H42         -9.7380     0.8870     0.8840 h4         1 4J0       0.182000
    132 H81        -13.3070     1.3310     2.3130 hc         1 4J0       0.051200
    133 H80        -12.1660     2.2310     1.3350 hc         1 4J0       0.051200
    134 H8A        -13.1330     1.2330    -0.7390 hc         1 4J0       0.061700
    135 H8B        -14.2430     0.2730     0.2330 hc         1 4J0       0.061700
    136 H69        -15.2330     2.3670     1.1690 h1         1 4J0       0.034200
    137 H7S        -14.1350     3.3290     0.1770 h1         1 4J0       0.034200
    138 H75        -15.7990     4.2910    -1.0200 h2         1 4J0       0.026700
    139 H66        -17.6840     5.3890    -0.1800 h1         1 4J0       0.046700
    140 H78        -19.9630     5.2070     0.8000 h1         1 4J0       0.039200
    141 H79        -19.7320     3.4680     1.0020 h1         1 4J0       0.039200
    142 H74        -19.0630     4.5740     2.8900 ho         1 4J0       0.407000
    143 H70        -19.5620     5.3670    -1.6310 h1         1 4J0       0.048700
    144 H73        -20.2150     3.2470    -2.4720 ho         1 4J0       0.423000
    145 H71        -17.3890     5.3300    -2.6300 h1         1 4J0       0.047700
    146 H77        -18.0310     4.1360    -4.6010 ho         1 4J0       0.431000
    147 H72        -17.5530     2.2870    -2.5290 h1         1 4J0       0.077700
    148 H76        -15.5250     2.4900    -3.5030 ho         1 4J0       0.427000
@<TRIPOS>BOND
     1     1     2 1   
     2     1    81 1   
     3     2     3 1   
     4     2    11 1   
     5     2    82 1   
     6     3     4 1   
     7     3     5 1   
     8     3    83 1   
     9     4    84 1   
    10     5     6 1   
    11     5     7 1   
    12     5    85 1   
    13     6    86 1   
    14     7     8 1   
    15     7    10 1   
    16     7    87 1   
    17     8     9 1   
    18     8    88 1   
    19     8    89 1   
    20     9    90 1   
    21    10    11 1   
    22    11    12 1   
    23    11    91 1   
    24    12    13 1   
    25    13    14 1   
    26    13    92 1   
    27    13    93 1   
    28    14    15 1   
    29    14    94 1   
    30    14    95 1   
    31    15    16 1   
    32    15    96 1   
    33    15    97 1   
    34    16    17 2   
    35    16    18 1   
    36    17    20 1   
    37    17    98 1   
    38    18    19 2   
    39    19    20 1   
    40    20    21 1   
    41    21    22 1   
    42    21    26 1   
    43    21    99 1   
    44    22    23 1   
    45    22    24 1   
    46    22   100 1   
    47    23    30 1   
    48    24    25 1   
    49    24   101 1   
    50    24   102 1   
    51    25   103 1   
    52    26    27 1   
    53    26    28 1   
    54    26   104 1   
    55    27   105 1   
    56    28    29 1   
    57    28    30 1   
    58    28   106 1   
    59    29   107 1   
    60    30    31 1   
    61    30   108 1   
    62    31    32 2   
    63    31    33 1   
    64    32    35 1   
    65    32   109 1   
    66    33    34 2   
    67    34    35 1   
    68    35    36 1   
    69    36    37 1   
    70    36    41 1   
    71    36   110 1   
    72    37    38 1   
    73    37    39 1   
    74    37   111 1   
    75    38    45 1   
    76    39    40 1   
    77    39   112 1   
    78    39   113 1   
    79    40   114 1   
    80    41    42 1   
    81    41    43 1   
    82    41   115 1   
    83    42   116 1   
    84    43    44 1   
    85    43    45 1   
    86    43   117 1   
    87    44   118 1   
    88    45    46 1   
    89    45   119 1   
    90    46    47 1   
    91    46    48 1   
    92    47    50 2   
    93    47   120 1   
    94    48    49 2   
    95    49    50 1   
    96    50    51 1   
    97    51    52 1   
    98    51    56 1   
    99    51   121 1   
   100    52    53 1   
   101    52    54 1   
   102    52   122 1   
   103    53   123 1   
   104    54    55 1   
   105    54    60 1   
   106    54   124 1   
   107    55   125 1   
   108    56    57 1   
   109    57    58 1   
   110    57    60 1   
   111    57   126 1   
   112    58    59 1   
   113    58   127 1   
   114    58   128 1   
   115    59   129 1   
   116    60    61 1   
   117    60   130 1   
   118    61    62 1   
   119    61    63 1   
   120    62    65 2   
   121    62   131 1   
   122    63    64 2   
   123    64    65 1   
   124    65    66 1   
   125    66    67 1   
   126    66   132 1   
   127    66   133 1   
   128    67    68 1   
   129    67   134 1   
   130    67   135 1   
   131    68    69 1   
   132    68   136 1   
   133    68   137 1   
   134    69    70 1   
   135    70    71 1   
   136    70    79 1   
   137    70   138 1   
   138    71    72 1   
   139    72    73 1   
   140    72    75 1   
   141    72   139 1   
   142    73    74 1   
   143    73   140 1   
   144    73   141 1   
   145    74   142 1   
   146    75    76 1   
   147    75    77 1   
   148    75   143 1   
   149    76   144 1   
   150    77    78 1   
   151    77    79 1   
   152    77   145 1   
   153    78   146 1   
   154    79    80 1   
   155    79   147 1   
   156    80   148 1   
@<TRIPOS>SUBSTRUCTURE
     1 4J0         1 TEMP              0 ****  ****    0 ROOT
