@<TRIPOS>MOLECULE
4J1
   68    70     1     0     0
SMALL
bcc


@<TRIPOS>ATOM
      1 C02       -124.2520    45.6020   -39.8610 c3         1 4J1       0.149400
      2 C03       -122.7620    45.7580   -40.1410 c6         1 4J1       0.160100
      3 C05       -120.8060    44.4240   -40.1470 c6         1 4J1       0.360900
      4 C10       -119.0220    39.3400   -37.1370 c3         1 4J1      -0.086700
      5 C14       -120.4680    36.0800   -40.6470 c3         1 4J1       0.045300
      6 C08       -119.7400    41.2760   -38.6330 c3         1 4J1      -0.081400
      7 C09       -119.7220    40.6990   -37.2240 c3         1 4J1      -0.071400
      8 C12       -119.2980    37.6990   -39.1210 cc         1 4J1      -0.245600
      9 C15       -120.5980    36.9460   -41.8920 c3         1 4J1      -0.095400
     10 C16       -121.7380    37.9520   -41.8170 c3         1 4J1      -0.071400
     11 O01       -124.7860    46.8400   -39.4620 oh         1 4J1      -0.584800
     12 C11       -119.6980    38.2910   -37.9500 cd         1 4J1       0.267600
     13 C17       -121.8910    38.7810   -43.0950 c3         1 4J1      -0.123700
     14 C18       -122.3010    37.9570   -44.2830 ca         1 4J1       0.384600
     15 C20       -121.6750    36.8590   -46.2140 ca         1 4J1       0.329000
     16 C21       -120.6240    36.4430   -47.1520 ce         1 4J1       0.319200
     17 C24       -122.9840    36.4060   -46.4370 ca         1 4J1       0.037800
     18 C26       -123.9680    36.7610   -45.5190 ca         1 4J1      -0.193000
     19 C27       -123.6240    37.5400   -44.4360 ca         1 4J1      -0.191300
     20 C30       -120.3440    44.9480   -41.5000 c6         1 4J1       0.123100
     21 C32       -120.9040    46.3530   -41.6860 c6         1 4J1       0.064100
     22 C34       -122.4210    46.3620   -41.5060 c6         1 4J1       0.102100
     23 N13       -120.3090    36.8740   -39.4430 na         1 4J1       0.106400
     24 N19       -121.3710    37.6140   -45.1580 nb         1 4J1      -0.618000
     25 N22       -119.4700    36.9230   -47.3950 n2         1 4J1      -0.423200
     26 N28       -121.2750    36.9470   -38.5460 nc         1 4J1      -0.209800
     27 N29       -120.9150    37.7930   -37.6410 nd         1 4J1      -0.364000
     28 O04       -122.2120    44.4570   -40.0860 os         1 4J1      -0.446600
     29 O06       -120.3950    43.1230   -39.9960 os         1 4J1      -0.384600
     30 O23       -119.1240    38.0390   -46.7090 oh         1 4J1      -0.343500
     31 O25       -123.2370    35.6650   -47.5270 oh         1 4J1      -0.487100
     32 O31       -118.9410    44.9390   -41.5220 oh         1 4J1      -0.581800
     33 O33       -120.5410    46.8060   -42.9760 oh         1 4J1      -0.605800
     34 O35       -122.9380    47.6640   -41.5830 oh         1 4J1      -0.573800
     35 H1        -124.3580    44.8480   -39.0690 h1         1 4J1       0.031700
     36 H2        -124.7530    45.2020   -40.7530 h1         1 4J1       0.031700
     37 H3        -122.3250    46.3880   -39.3480 h1         1 4J1       0.060700
     38 H4        -120.3920    45.0670   -39.3460 h2         1 4J1       0.030700
     39 H5        -118.9850    39.0270   -36.0910 hc         1 4J1       0.051200
     40 H6        -117.9860    39.4390   -37.4700 hc         1 4J1       0.051200
     41 H7        -121.3600    35.4730   -40.4990 h1         1 4J1       0.071700
     42 H8        -119.6160    35.4060   -40.7340 h1         1 4J1       0.071700
     43 H9        -119.8950    43.3300   -38.0000 h1         1 4J1       0.030200
     44 H10       -121.4470    42.5410   -38.2990 h1         1 4J1       0.030200
     45 H11       -120.2640    40.5950   -39.3110 hc         1 4J1       0.053200
     46 H12       -118.7160    41.3690   -39.0050 hc         1 4J1       0.053200
     47 H13       -119.2130    41.3940   -36.5510 hc         1 4J1       0.046700
     48 H14       -120.7450    40.6010   -36.8500 hc         1 4J1       0.046700
     49 H15       -118.4100    37.8030   -39.7230 h4         1 4J1       0.185000
     50 H16       -120.7390    36.2670   -42.7360 hc         1 4J1       0.060200
     51 H17       -119.6550    37.4690   -42.0780 hc         1 4J1       0.060200
     52 H18       -121.5720    38.6430   -40.9850 hc         1 4J1       0.050200
     53 H19       -122.6780    37.4340   -41.6010 hc         1 4J1       0.050200
     54 H20       -125.7260    46.7180   -39.3010 ho         1 4J1       0.407000
     55 H21       -120.9480    39.2830   -43.3190 hc         1 4J1       0.064200
     56 H22       -122.6370    39.5590   -42.9200 hc         1 4J1       0.064200
     57 H23       -120.8330    35.5700   -47.7580 h4         1 4J1       0.038800
     58 H24       -124.9920    36.4320   -45.6590 ha         1 4J1       0.139000
     59 H25       -124.3760    37.8300   -43.7130 ha         1 4J1       0.145000
     60 H26       -120.7630    44.2940   -42.2810 h1         1 4J1       0.069700
     61 H27       -120.4660    47.0020   -40.9140 h1         1 4J1       0.053700
     62 H28       -122.8690    45.7140   -42.2780 h1         1 4J1       0.054700
     63 H29       -118.2540    38.2600   -47.0600 ho         1 4J1       0.420000
     64 H30       -124.1610    35.3890   -47.5460 ho         1 4J1       0.432000
     65 H31       -118.6580    45.3730   -42.3340 ho         1 4J1       0.417000
     66 H32       -120.2610    47.7240   -42.9230 ho         1 4J1       0.413000
     67 H33       -122.7590    48.0040   -42.4650 ho         1 4J1       0.407000
     68 C07       -120.4180    42.6300   -38.6660 c3         1 4J1       0.142400
@<TRIPOS>BOND
     1     1     2 1   
     2     1    11 1   
     3     1    35 1   
     4     1    36 1   
     5     2    22 1   
     6     2    28 1   
     7     2    37 1   
     8     3    20 1   
     9     3    28 1   
    10     3    29 1   
    11     3    38 1   
    12     4     7 1   
    13     4    12 1   
    14     4    39 1   
    15     4    40 1   
    16     5     9 1   
    17     5    23 1   
    18     5    41 1   
    19     5    42 1   
    20     6     7 1   
    21     6    45 1   
    22     6    46 1   
    23     6    68 1   
    24     7    47 1   
    25     7    48 1   
    26     8    12 2   
    27     8    23 1   
    28     8    49 1   
    29     9    10 1   
    30     9    50 1   
    31     9    51 1   
    32    10    13 1   
    33    10    52 1   
    34    10    53 1   
    35    11    54 1   
    36    12    27 1   
    37    13    14 1   
    38    13    55 1   
    39    13    56 1   
    40    14    19 ar  
    41    14    24 ar  
    42    15    16 1   
    43    15    17 ar  
    44    15    24 ar  
    45    16    25 2   
    46    16    57 1   
    47    17    18 ar  
    48    17    31 1   
    49    18    19 ar  
    50    18    58 1   
    51    19    59 1   
    52    20    21 1   
    53    20    32 1   
    54    20    60 1   
    55    21    22 1   
    56    21    33 1   
    57    21    61 1   
    58    22    34 1   
    59    22    62 1   
    60    23    26 1   
    61    25    30 1   
    62    26    27 2   
    63    29    68 1   
    64    30    63 1   
    65    31    64 1   
    66    32    65 1   
    67    33    66 1   
    68    34    67 1   
    69    43    68 1   
    70    44    68 1   
@<TRIPOS>SUBSTRUCTURE
     1 4J1         1 TEMP              0 ****  ****    0 ROOT
