@<TRIPOS>MOLECULE
4J1
   68    70     1     0     0
SMALL
No Charge or Current Charge


@<TRIPOS>ATOM
      1 C02        124.0670    45.7070   -39.7050 c3         1 4J1       0.172600
      2 C03       -122.5620    45.7860   -40.1160 c6         1 4J1       0.183300
      3 C05        120.5620    44.4180   -40.1890 c6         1 4J1       0.407300
      4 C10       -119.0600    39.2360   -36.9000 c3         1 4J1      -0.086700
      5 C14        120.7840    36.0750   -40.4220 c3         1 4J1       0.074600
      6 C08       -119.6120    41.2400   -38.4460 c3         1 4J1      -0.081400
      7 C09        119.6370    40.6670   -37.0090 c3         1 4J1      -0.071400
      8 C12       -119.5140    37.7050   -38.9270 cc         1 4J1      -0.213000
      9 C15        120.8600    36.9220   -41.7150 c3         1 4J1      -0.095400
     10 C16       -122.0220    37.9470   -41.7270 c3         1 4J1      -0.071400
     11 O01        124.7510    46.9670   -39.8690 oh         1 4J1      -0.707000
     12 C11       -119.8320    38.2230   -37.7060 cd         1 4J1       0.202300
     13 C17        122.0890    38.7960   -43.0190 c3         1 4J1      -0.123700
     14 C18       -122.3600    37.9760   -44.2740 ca         1 4J1       0.319300
     15 C20        121.5340    37.1320   -46.2940 ca         1 4J1       0.263700
     16 C21       -120.3980    37.0210   -47.2750 ce         1 4J1       0.319200
     17 C24        122.7740    36.4920   -46.5720 ca         1 4J1       0.103100
     18 C26       -123.8270    36.6120   -45.6490 ca         1 4J1      -0.175000
     19 C27        123.6120    37.3670   -44.4830 ca         1 4J1      -0.108000
     20 C30       -120.2730    44.8130   -41.6810 c6         1 4J1       0.146300
     21 C32        120.8570    46.2290   -41.9550 c6         1 4J1       0.087300
     22 C34       -122.3700    46.2590   -41.5930 c6         1 4J1       0.125300
     23 N13        120.5680    36.8710   -39.2020 na         1 4J1       0.127800
     24 N19       -121.3410    37.8670   -45.1570 nb         1 4J1      -0.618000
     25 N22        119.4500    37.9150   -47.3580 n2         1 4J1      -0.324700
     26 N28       -121.4770    36.8630   -38.1850 nc         1 4J1      -0.209800
     27 N29        121.0260    37.6850   -37.2760 nd         1 4J1      -0.364000
     28 O04       -121.9850    44.4690   -39.9420 os         1 4J1      -0.493000
     29 O06        120.0950    43.0880   -39.9030 os         1 4J1      -0.431000
     30 O23       -118.5110    37.6780   -48.3770 oh         1 4J1      -0.481000
     31 O25        122.9710    35.7640   -47.7170 oh         1 4J1      -0.526100
     32 O31       -118.8680    44.8040   -42.0250 oh         1 4J1      -0.704000
     33 O33        120.6580    46.6080   -43.3290 oh         1 4J1      -0.668000
     34 O35       -122.9090    47.5800   -41.7890 oh         1 4J1      -0.696000
     35 H1         124.1170    45.3840   -38.6560 h1         1 4J1       0.031700
     36 H2        -124.5530    44.9330   -40.3140 h1         1 4J1       0.031700
     37 H3         122.0560    46.4850   -39.4330 h1         1 4J1       0.060700
     38 H4        -120.0500    45.1290   -39.5230 h2         1 4J1       0.030700
     39 H5         119.0530    38.9370   -35.8450 hc         1 4J1       0.051200
     40 H6        -118.0120    39.2460   -37.2230 hc         1 4J1       0.051200
     41 H7         121.7120    35.4990   -40.3110 h1         1 4J1       0.071700
     42 H8        -119.9580    35.3580   -40.5090 h1         1 4J1       0.071700
     43 H9         119.5720    43.3400   -37.8920 h1         1 4J1       0.030200
     44 H10       -121.2060    42.6850   -38.1720 h1         1 4J1       0.030200
     45 H11        120.2030    40.5970   -39.1090 hc         1 4J1       0.053200
     46 H12       -118.5820    41.2330   -38.8210 hc         1 4J1       0.053200
     47 H13        119.0630    41.3290   -36.3490 hc         1 4J1       0.046700
     48 H14       -120.6700    40.6680   -36.6360 hc         1 4J1       0.046700
     49 H15        118.6780    37.8710   -39.5930 h4         1 4J1       0.167000
     50 H16       -120.9710    36.2380   -42.5650 hc         1 4J1       0.060200
     51 H17        119.9090    37.4490   -41.8590 hc         1 4J1       0.060200
     52 H18       -121.9120    38.6290   -40.8740 hc         1 4J1       0.050200
     53 H19        122.9740    37.4210   -41.5860 hc         1 4J1       0.050200
     54 H20       -125.6430    46.8640   -39.4550 ho         1 4J1       0.506000
     55 H21        121.1540    39.3620   -43.1220 hc         1 4J1       0.064200
     56 H22       -122.8810    39.5460   -42.9040 hc         1 4J1       0.064200
     57 H23        120.4590    36.2050   -47.9980 h4         1 4J1       0.038800
     58 H24       -124.7900    36.1380   -45.8240 ha         1 4J1       0.121000
     59 H25        124.4040    37.4820   -43.7480 ha         1 4J1       0.127000
     60 H26       -120.8120    44.0950   -42.3170 h1         1 4J1       0.069700
     61 H27        120.3400    46.9450   -41.2970 h1         1 4J1       0.053700
     62 H28       -122.8980    45.5450   -42.2440 h1         1 4J1       0.054700
     63 H29        117.8680    38.4250   -48.3150 ho         1 4J1       0.459000
     64 H30       -123.8890    35.4130   -47.7170 ho         1 4J1       0.471000
     65 H31        118.8120    45.3750   -42.8290 ho         1 4J1       0.516000
     66 H32       -121.3030    47.3360   -43.4890 ho         1 4J1       0.452000
     67 H33        123.6980    47.6180   -41.1810 ho         1 4J1       0.506000
     68 C07       -120.1680    42.6740   -38.5300 c3         1 4J1       0.165600
@<TRIPOS>BOND
     1     1     2 1   
     2     1    11 1   
     3     1    35 1   
     4     1    36 1   
     5     2    22 1   
     6     2    28 1   
     7     2    37 1   
     8     3    20 1   
     9     3    28 1   
    10     3    29 1   
    11     3    38 1   
    12     4     7 1   
    13     4    12 1   
    14     4    39 1   
    15     4    40 1   
    16     5     9 1   
    17     5    23 1   
    18     5    41 1   
    19     5    42 1   
    20     6     7 1   
    21     6    45 1   
    22     6    46 1   
    23     6    68 1   
    24     7    47 1   
    25     7    48 1   
    26     8    12 2   
    27     8    23 1   
    28     8    49 1   
    29     9    10 1   
    30     9    50 1   
    31     9    51 1   
    32    10    13 1   
    33    10    52 1   
    34    10    53 1   
    35    11    54 1   
    36    12    27 1   
    37    13    14 1   
    38    13    55 1   
    39    13    56 1   
    40    14    19 ar  
    41    14    24 ar  
    42    15    16 1   
    43    15    17 ar  
    44    15    24 ar  
    45    16    25 2   
    46    16    57 1   
    47    17    18 ar  
    48    17    31 1   
    49    18    19 ar  
    50    18    58 1   
    51    19    59 1   
    52    20    21 1   
    53    20    32 1   
    54    20    60 1   
    55    21    22 1   
    56    21    33 1   
    57    21    61 1   
    58    22    34 1   
    59    22    62 1   
    60    23    26 1   
    61    25    30 1   
    62    26    27 2   
    63    29    68 1   
    64    30    63 1   
    65    31    64 1   
    66    32    65 1   
    67    33    66 1   
    68    34    67 1   
    69    43    68 1   
    70    44    68 1   
@<TRIPOS>SUBSTRUCTURE
     1 4J1         1 TEMP              0 ****  ****    0 ROOT
