@<TRIPOS>MOLECULE
4J2
   28    29     1     0     0
SMALL
abcg2


@<TRIPOS>ATOM
      1 N           -1.5370     3.1230    -0.5790 n8         1 4J2      -1.010200
      2 CA          -2.7540     2.5970     0.0150 c3         1 4J2       0.026500
      3 CB          -2.4550     1.9890     1.3920 c3         1 4J2      -0.022100
      4 CG          -1.8870     2.9970     2.3490 ca         1 4J2      -0.035300
      5 CD1         -0.4880     3.2040     2.4380 ca         1 4J2      -0.080000
      6 CD2         -2.7120     3.7720     3.1260 ca         1 4J2      -0.126000
      7 CE1          0.0390     4.1480     3.2750 ca         1 4J2      -0.127000
      8 CZ1         -0.7990     4.9540     4.0790 ca         1 4J2      -0.048000
      9 CZ2         -0.2890     5.9390     4.9560 ca         1 4J2      -0.097000
     10 CZ3         -1.1320     6.6990     5.7210 ca         1 4J2      -0.130000
     11 CE2         -2.2030     4.7590     4.0000 ca         1 4J2      -0.032000
     12 CE3         -3.0500     5.5590     4.8040 ca         1 4J2      -0.095000
     13 CE4         -2.5290     6.5070     5.6430 ca         1 4J2      -0.127000
     14 HE1          1.1130     4.2880     3.3310 ha         1 4J2       0.099000
     15 HE3         -4.1220     5.4100     4.7450 ha         1 4J2       0.108000
     16 HE4         -3.1870     7.1130     6.2530 ha         1 4J2       0.098000
     17 C           -3.4370     1.5630    -0.9210 c          1 4J2       0.720000
     18 O           -4.3570     0.8900    -0.4180 o          1 4J2      -0.727000
     19 H           -1.6750     3.1810    -1.5790 hn         1 4J2       0.387000
     20 H1          -1.3610     4.0620    -0.2460 hn         1 4J2       0.387000
     21 HA          -3.5100     3.3850     0.1770 h1         1 4J2       0.000700
     22 HB2         -3.3760     1.5730     1.8000 hc         1 4J2       0.059200
     23 HB1         -1.7500     1.1620     1.2660 hc         1 4J2       0.059200
     24 HD1          0.1700     2.5960     1.8310 ha         1 4J2       0.126000
     25 HD2         -3.7870     3.6290     3.0780 ha         1 4J2       0.116000
     26 HZ2          0.7830     6.0850     5.0140 ha         1 4J2       0.100000
     27 HZ23        -0.7320     7.4520     6.3880 ha         1 4J2       0.097000
     28 OXT         -3.0400     1.5210    -2.1020 o          1 4J2      -0.727000
@<TRIPOS>BOND
     1     1     2 1   
     2     1    19 1   
     3     1    20 1   
     4     2     3 1   
     5     2    17 1   
     6     2    21 1   
     7     3     4 1   
     8     3    22 1   
     9     3    23 1   
    10     4     5 ar  
    11     4     6 ar  
    12     5     7 ar  
    13     5    24 1   
    14     6    11 ar  
    15     6    25 1   
    16     7     8 ar  
    17     7    14 1   
    18     8     9 ar  
    19     8    11 ar  
    20     9    10 ar  
    21     9    26 1   
    22    10    13 ar  
    23    10    27 1   
    24    11    12 ar  
    25    12    13 ar  
    26    12    15 1   
    27    13    16 1   
    28    17    18 1   
    29    17    28 1   
@<TRIPOS>SUBSTRUCTURE
     1 4J2         1 TEMP              0 ****  ****    0 ROOT
