@<TRIPOS>MOLECULE
4J2
   28    29     1     0     0
SMALL
No Charge or Current Charge


@<TRIPOS>ATOM
      1 N           -1.6730     3.2830    -0.6780 n8         1 4J2      -1.010200
      2 CA          -2.7960     2.5390     0.0020 c3         1 4J2       0.026500
      3 CB          -2.3110     1.9310     1.3480 c3         1 4J2      -0.022100
      4 CG          -1.7710     2.9690     2.3300 ca         1 4J2      -0.035300
      5 CD1         -0.3920     3.0400     2.6100 ca         1 4J2      -0.080000
      6 CD2         -2.6530     3.8600     2.9730 ca         1 4J2      -0.126000
      7 CE1          0.1020     3.9920     3.5190 ca         1 4J2      -0.127000
      8 CZ1         -0.7790     4.8820     4.1580 ca         1 4J2      -0.048000
      9 CZ2         -0.2900     5.8380     5.0690 ca         1 4J2      -0.097000
     10 CZ3         -1.1760     6.7240     5.7040 ca         1 4J2      -0.130000
     11 CE2         -2.1630     4.8160     3.8840 ca         1 4J2      -0.032000
     12 CE3         -3.0470     5.7060     4.5240 ca         1 4J2      -0.095000
     13 CE4         -2.5530     6.6580     5.4330 ca         1 4J2      -0.127000
     14 HE1          1.1700     4.0350     3.7240 ha         1 4J2       0.099000
     15 HE3         -4.1140     5.6610     4.3180 ha         1 4J2       0.108000
     16 HE4         -3.2380     7.3440     5.9250 ha         1 4J2       0.098000
     17 C           -3.5790     1.4770    -0.8870 c          1 4J2       0.720000
     18 O           -3.2830     0.2900    -0.8090 o          1 4J2      -0.727000
     19 H           -2.0590     3.8330    -1.4560 hn         1 4J2       0.387000
     20 H1          -1.3080     3.9930    -0.0320 hn         1 4J2       0.387000
     21 HA          -3.5370     3.3080     0.2610 h1         1 4J2       0.000700
     22 HB2         -3.1520     1.4030     1.8160 hc         1 4J2       0.059200
     23 HB1         -1.5530     1.1640     1.1460 hc         1 4J2       0.059200
     24 HD1          0.3000     2.3570     2.1210 ha         1 4J2       0.126000
     25 HD2         -3.7190     3.8080     2.7640 ha         1 4J2       0.116000
     26 HZ2          0.7750     5.8940     5.2840 ha         1 4J2       0.100000
     27 HZ23        -0.7960     7.4610     6.4080 ha         1 4J2       0.097000
     28 OXT         -4.4680     1.8910    -1.6220 o          1 4J2      -0.727000
@<TRIPOS>BOND
     1     1     2 1   
     2     1    19 1   
     3     1    20 1   
     4     2     3 1   
     5     2    17 1   
     6     2    21 1   
     7     3     4 1   
     8     3    22 1   
     9     3    23 1   
    10     4     5 ar  
    11     4     6 ar  
    12     5     7 ar  
    13     5    24 1   
    14     6    11 ar  
    15     6    25 1   
    16     7     8 ar  
    17     7    14 1   
    18     8     9 ar  
    19     8    11 ar  
    20     9    10 ar  
    21     9    26 1   
    22    10    13 ar  
    23    10    27 1   
    24    11    12 ar  
    25    12    13 ar  
    26    12    15 1   
    27    13    16 1   
    28    17    18 1   
    29    17    28 1   
@<TRIPOS>SUBSTRUCTURE
     1 4J2         1 TEMP              0 ****  ****    0 ROOT
