@<TRIPOS>MOLECULE
4J3
   10     9     1     0     0
SMALL
No Charge or Current Charge


@<TRIPOS>ATOM
      1 N1           0.5940     1.1480     0.8720 n8         1 4J3      -1.064100
      2 O2           1.3640    -1.2250     0.8550 o          1 4J3      -0.552000
      3 N2          -1.9730     0.6160    -0.0510 n8         1 4J3      -0.694700
      4 O1          -0.9970    -0.5560     0.0460 os         1 4J3      -0.377000
      5 O3           1.0760     0.1330    -1.3030 o          1 4J3      -0.552000
      6 S1           0.6450    -0.2420     0.0420 s6         1 4J3       1.420800
      7 H1           0.9380     1.7570     0.1370 hn         1 4J3       0.491000
      8 H2          -0.4190     1.2560     0.8040 hn         1 4J3       0.491000
      9 H4          -2.4030     0.5350    -0.9860 hn         1 4J3       0.418000
     10 H3          -2.7390     0.3870     0.6020 hn         1 4J3       0.418000
@<TRIPOS>BOND
     1     1     6 1   
     2     1     7 1   
     3     1     8 1   
     4     2     6 2   
     5     3     4 1   
     6     3     9 1   
     7     3    10 1   
     8     4     6 1   
     9     5     6 2   
@<TRIPOS>SUBSTRUCTURE
     1 4J3         1 TEMP              0 ****  ****    0 ROOT
