@<TRIPOS>MOLECULE
4J3
   10     9     1     0     0
SMALL
abcg2


@<TRIPOS>ATOM
      1 N1           0.4570     1.4680     0.5440 n8         1 4J3      -1.064100
      2 O2           1.4620    -0.8420     0.0930 o          1 4J3      -0.552000
      3 N2          -2.0710     0.0690     0.0630 n8         1 4J3      -0.694700
      4 O1          -0.8870    -0.6660     0.3230 os         1 4J3      -0.377000
      5 O3           0.1860     0.3970    -1.6790 o          1 4J3      -0.552000
      6 S1           0.4120     0.0720    -0.2910 s6         1 4J3       1.420800
      7 H1           0.9590     1.4210     1.4220 hn         1 4J3       0.491000
      8 H2           0.7110     2.2740    -0.0130 hn         1 4J3       0.491000
      9 H4          -2.6650    -0.5910    -0.4260 hn         1 4J3       0.418000
     10 H3          -2.4770     0.2090     0.9820 hn         1 4J3       0.418000
@<TRIPOS>BOND
     1     1     6 1   
     2     1     7 1   
     3     1     8 1   
     4     2     6 2   
     5     3     4 1   
     6     3     9 1   
     7     3    10 1   
     8     4     6 1   
     9     5     6 2   
@<TRIPOS>SUBSTRUCTURE
     1 4J3         1 TEMP              0 ****  ****    0 ROOT
