@<TRIPOS>MOLECULE
4J4
   43    44     1     0     0
SMALL
bcc


@<TRIPOS>ATOM
      1 N            7.7200     0.6150    -0.1940 n8         1 4J4      -0.881800
      2 CA           7.1660    -0.5940     0.3890 c3         1 4J4       0.017500
      3 C            7.9250    -1.9130     0.0780 c          1 4J4       0.907600
      4 O            8.9730    -1.8270    -0.5880 o          1 4J4      -0.832800
      5 CB           5.7070    -0.7340    -0.0200 c3         1 4J4       0.047700
      6 CAP         -0.0060     2.2480    -0.3920 c3         1 4J4       0.142300
      7 CAQ         -1.3360     1.5520    -0.2570 ca         1 4J4      -0.092300
      8 CAS         -2.7570    -0.0860     0.8020 ca         1 4J4      -0.111000
      9 CAR         -1.5260     0.5360     0.6750 ca         1 4J4      -0.119500
     10 CAM          3.1300     0.1880     0.1360 c3         1 4J4      -0.105300
     11 CAL         -6.3810    -2.5030     0.2280 ca         1 4J4      -0.189000
     12 CAN          2.1510     1.3190     0.3670 c          1 4J4       0.685100
     13 OAF          2.3230     2.1440     1.2520 o          1 4J4      -0.587100
     14 SG           4.8200     0.8130     0.3350 ss         1 4J4      -0.283200
     15 NAO          1.0930     1.3140    -0.4600 ns         1 4J4      -0.582900
     16 CAG         -2.4090     1.9250    -1.0580 ca         1 4J4      -0.119500
     17 CAH         -3.6450     1.3080    -0.9320 ca         1 4J4      -0.111000
     18 CAI         -3.8360     0.2890    -0.0010 cp         1 4J4      -0.044000
     19 CAJ         -5.1250    -0.4200     0.1210 cp         1 4J4      -0.081000
     20 CAB         -6.3330     0.2520     0.2750 ca         1 4J4       0.171900
     21 FAA         -6.3300     1.5890     0.3300 f          1 4J4      -0.133900
     22 CAC         -7.5480    -0.3920     0.4000 ca         1 4J4      -0.222000
     23 CAD         -7.5440    -1.7730     0.3700 ca         1 4J4       0.159900
     24 FAE         -8.7110    -2.4170     0.4880 f          1 4J4      -0.140900
     25 CAK         -5.1840    -1.8140     0.1060 ca         1 4J4      -0.070000
     26 H            8.6980     0.6770     0.0610 hn         1 4J4       0.330300
     27 H1           7.7260     0.5170    -1.2030 hn         1 4J4       0.330300
     28 HA           7.1880    -0.4660     1.4780 h1         1 4J4       0.055700
     29 HB1          5.6210    -0.9600    -1.0870 h1         1 4J4       0.056200
     30 HB2          5.2400    -1.5480     0.5320 h1         1 4J4       0.056200
     31 HAP         -0.0110     2.8810    -1.2830 h1         1 4J4       0.064200
     32 HAQ          0.1630     2.9060     0.4600 h1         1 4J4       0.064200
     33 HAS         -2.8840    -0.8670     1.5420 ha         1 4J4       0.133000
     34 HAR         -0.7080     0.2230     1.3130 ha         1 4J4       0.139000
     35 HAM          2.9330    -0.5940     0.8760 h1         1 4J4       0.064700
     36 HAN          3.0080    -0.2580    -0.8520 h1         1 4J4       0.064700
     37 HAO          1.0550     0.6180    -1.1860 hn         1 4J4       0.312500
     38 HAG         -2.2800     2.7040    -1.8010 ha         1 4J4       0.139000
     39 HAH         -4.4500     1.6030    -1.5920 ha         1 4J4       0.133000
     40 HAC         -8.4650     0.1690     0.5280 ha         1 4J4       0.165000
     41 HAK         -4.2690    -2.3760    -0.0210 ha         1 4J4       0.146000
     42 OXT          7.4180    -2.9530     0.5470 o          1 4J4      -0.832800
     43 HAL         -6.4050    -3.5840     0.2050 ha         1 4J4       0.154000
@<TRIPOS>BOND
     1     1     2 1   
     2     1    26 1   
     3     1    27 1   
     4     2     3 1   
     5     2     5 1   
     6     2    28 1   
     7     3     4 1   
     8     3    42 1   
     9     5    14 1   
    10     5    29 1   
    11     5    30 1   
    12     6     7 1   
    13     6    15 1   
    14     6    31 1   
    15     6    32 1   
    16     7     9 ar  
    17     7    16 ar  
    18     8     9 ar  
    19     8    18 ar  
    20     8    33 1   
    21     9    34 1   
    22    10    12 1   
    23    10    14 1   
    24    10    35 1   
    25    10    36 1   
    26    11    23 ar  
    27    11    25 ar  
    28    11    43 1   
    29    12    13 2   
    30    12    15 1   
    31    15    37 1   
    32    16    17 ar  
    33    16    38 1   
    34    17    18 ar  
    35    17    39 1   
    36    18    19 1   
    37    19    20 ar  
    38    19    25 ar  
    39    20    21 1   
    40    20    22 ar  
    41    22    23 ar  
    42    22    40 1   
    43    23    24 1   
    44    25    41 1   
@<TRIPOS>SUBSTRUCTURE
     1 4J4         1 TEMP              0 ****  ****    0 ROOT
