@<TRIPOS>MOLECULE
4J4
   43    44     1     0     0
SMALL
No Charge or Current Charge


@<TRIPOS>ATOM
      1 N            6.8600     0.3880    -1.8470 n8         1 4J4      -0.992200
      2 CA           6.9790    -0.3510    -0.5270 c3         1 4J4       0.017500
      3 C            7.9580    -1.5890    -0.5200 c          1 4J4       0.697000
      4 O            7.7550    -2.4960    -1.3170 o          1 4J4      -0.727500
      5 CB           5.5970    -0.8010     0.0220 c3         1 4J4       0.095600
      6 CAP          0.1770     2.3230     0.6830 c3         1 4J4       0.142300
      7 CAQ         -1.1660     1.6410     0.4700 ca         1 4J4      -0.092300
      8 CAS         -3.0850     0.4220     1.3550 ca         1 4J4      -0.093000
      9 CAR         -1.8460     1.0560     1.5540 ca         1 4J4      -0.101500
     10 CAM          3.0050    -0.2750     1.0720 c3         1 4J4      -0.057400
     11 CAL         -6.4690    -2.2410     0.3110 ca         1 4J4      -0.171000
     12 CAN          1.8780     0.6670     1.5230 c          1 4J4       0.618100
     13 OAF          1.5320     0.7750     2.6920 o          1 4J4      -0.587100
     14 SG           4.5060     0.6370     0.4570 ss         1 4J4      -0.379000
     15 NAO          1.2860     1.3850     0.5080 ns         1 4J4      -0.515900
     16 CAG         -1.7380     1.5810    -0.8140 ca         1 4J4      -0.101500
     17 CAH         -2.9770     0.9490    -1.0110 ca         1 4J4      -0.093000
     18 CAI         -3.6790     0.3610     0.0710 cp         1 4J4      -0.044000
     19 CAJ         -4.9940    -0.3250    -0.1300 cp         1 4J4      -0.081000
     20 CAB         -6.0310     0.2390    -0.9250 ca         1 4J4       0.207000
     21 FAA         -5.8720     1.4470    -1.5100 f          1 4J4      -0.169000
     22 CAC         -7.2550    -0.4250    -1.0980 ca         1 4J4      -0.204000
     23 CAD         -7.4690    -1.6630    -0.4820 ca         1 4J4       0.195000
     24 FAE         -8.6470    -2.3010    -0.6490 f          1 4J4      -0.176000
     25 CAK         -5.2420    -1.5770     0.4880 ca         1 4J4      -0.052000
     26 H            7.7940     0.6960    -2.1450 hn         1 4J4       0.385500
     27 H1           6.5930    -0.2850    -2.5750 hn         1 4J4       0.385500
     28 HA           7.3910     0.3610     0.2020 h1         1 4J4       0.055700
     29 HB1          5.0890    -1.4330    -0.7180 h1         1 4J4       0.056200
     30 HB2          5.7490    -1.3990     0.9300 h1         1 4J4       0.056200
     31 HAP          0.2940     3.1420    -0.0390 h1         1 4J4       0.064200
     32 HAQ          0.2190     2.7640     1.6880 h1         1 4J4       0.064200
     33 HAS         -3.5960    -0.0180     2.2090 ha         1 4J4       0.115000
     34 HAR         -1.4140     1.0890     2.5510 ha         1 4J4       0.121000
     35 HAM          3.2860    -0.9090     1.9220 h1         1 4J4       0.064700
     36 HAN          2.6160    -0.9150     0.2710 h1         1 4J4       0.064700
     37 HAO          1.6560     1.2400    -0.4240 hn         1 4J4       0.312500
     38 HAG         -1.2200     2.0220    -1.6640 ha         1 4J4       0.121000
     39 HAH         -3.3920     0.9010    -2.0150 ha         1 4J4       0.115000
     40 HAC         -8.0360     0.0240    -1.7050 ha         1 4J4       0.147000
     41 HAK         -4.4710    -2.0420     1.0980 ha         1 4J4       0.128000
     42 OXT          8.9350    -1.5520     0.2150 o          1 4J4      -0.727500
     43 HAL         -6.6440    -3.2030     0.7870 ha         1 4J4       0.136000
@<TRIPOS>BOND
     1     1     2 1   
     2     1    26 1   
     3     1    27 1   
     4     2     3 1   
     5     2     5 1   
     6     2    28 1   
     7     3     4 1   
     8     3    42 1   
     9     5    14 1   
    10     5    29 1   
    11     5    30 1   
    12     6     7 1   
    13     6    15 1   
    14     6    31 1   
    15     6    32 1   
    16     7     9 ar  
    17     7    16 ar  
    18     8     9 ar  
    19     8    18 ar  
    20     8    33 1   
    21     9    34 1   
    22    10    12 1   
    23    10    14 1   
    24    10    35 1   
    25    10    36 1   
    26    11    23 ar  
    27    11    25 ar  
    28    11    43 1   
    29    12    13 2   
    30    12    15 1   
    31    15    37 1   
    32    16    17 ar  
    33    16    38 1   
    34    17    18 ar  
    35    17    39 1   
    36    18    19 1   
    37    19    20 ar  
    38    19    25 ar  
    39    20    21 1   
    40    20    22 ar  
    41    22    23 ar  
    42    22    40 1   
    43    23    24 1   
    44    25    41 1   
@<TRIPOS>SUBSTRUCTURE
     1 4J4         1 TEMP              0 ****  ****    0 ROOT
