@<TRIPOS>MOLECULE
4J5
   23    22     1     0     0
SMALL
bcc


@<TRIPOS>ATOM
      1 OXT          2.7730    -7.1520    -0.9480 o          1 4J5      -0.804800
      2 C            3.0570    -5.9470    -1.0670 c          1 4J5       0.918600
      3 N            4.6930    -4.2390    -1.8540 n8         1 4J5      -0.938800
      4 O            2.4840    -4.9790    -0.5280 o          1 4J5      -0.804800
      5 CA           4.2430    -5.6220    -2.0150 c3         1 4J5      -0.007500
      6 CB           5.4160    -6.5730    -1.7890 c3         1 4J5      -0.066400
      7 ND           7.3530    -6.3360    -0.2020 nu         1 4J5      -0.399100
      8 CE           7.9630    -5.1720    -0.4060 cz         1 4J5       0.503300
      9 CG           5.9210    -6.5280    -0.3350 c3         1 4J5       0.027300
     10 NH1          9.2900    -5.1090    -0.2790 nv         1 4J5      -0.532200
     11 NH2          7.2620    -4.0940    -0.7160 nv         1 4J5      -0.532200
     12 H            4.8670    -3.8110    -2.7530 hn         1 4J5       0.365800
     13 HA           3.8720    -5.7890    -3.0350 h1         1 4J5       0.048700
     14 HD           7.9270    -7.1510    -0.0650 hn         1 4J5       0.297700
     15 HB2          5.1230    -7.5890    -2.0500 hc         1 4J5       0.044200
     16 HB3          6.2270    -6.3030    -2.4700 hc         1 4J5       0.044200
     17 HG2          5.6880    -7.4570     0.1790 h1         1 4J5       0.091700
     18 HG3          5.4180    -5.7370     0.2280 h1         1 4J5       0.091700
     19 HH11         9.7810    -4.2390    -0.3950 hn         1 4J5       0.321450
     20 HH12         9.8110    -5.8780     0.1080 hn         1 4J5       0.321450
     21 HH21         6.2710    -4.1390    -1.0660 hn         1 4J5       0.321450
     22 HH22         7.7490    -3.2250    -0.8580 hn         1 4J5       0.321450
     23 HNA          3.9450    -3.7190    -1.4080 hn         1 4J5       0.365800
@<TRIPOS>BOND
     1     1     2 1   
     2     2     4 1   
     3     2     5 1   
     4     3     5 1   
     5     3    12 1   
     6     3    23 1   
     7     5     6 1   
     8     5    13 1   
     9     6     9 1   
    10     6    15 1   
    11     6    16 1   
    12     7     8 2   
    13     7     9 1   
    14     7    14 1   
    15     8    10 1   
    16     8    11 1   
    17     9    17 1   
    18     9    18 1   
    19    10    19 1   
    20    10    20 1   
    21    11    21 1   
    22    11    22 1   
@<TRIPOS>SUBSTRUCTURE
     1 4J5         1 TEMP              0 ****  ****    0 ROOT
