@<TRIPOS>MOLECULE
4J5
   23    22     1     0     0
SMALL
No Charge or Current Charge


@<TRIPOS>ATOM
      1 OXT          2.8060    -7.1530    -0.6690 o          1 4J5      -0.699500
      2 C            2.9340    -5.9910    -1.0300 c          1 4J5       0.708000
      3 N            4.6350    -4.1560    -1.8780 n8         1 4J5      -1.049200
      4 O            2.1710    -5.0980    -0.6840 o          1 4J5      -0.699500
      5 CA           4.1720    -5.5940    -1.9520 c3         1 4J5      -0.007500
      6 CB           5.3930    -6.5400    -1.7730 c3         1 4J5      -0.066400
      7 ND           7.4160    -6.3170    -0.3030 nu         1 4J5      -0.884000
      8 CE           8.0350    -5.1590    -0.3900 cz         1 4J5       0.908600
      9 CG           5.9590    -6.5750    -0.3280 c3         1 4J5       0.056600
     10 NH1          9.3200    -5.1100    -0.2050 nv         1 4J5      -0.632800
     11 NH2          7.3750    -4.0820    -0.6890 nv         1 4J5      -0.632800
     12 H            4.9460    -3.8540    -2.8120 hn         1 4J5       0.421000
     13 HA           3.7960    -5.7410    -2.9740 h1         1 4J5       0.048700
     14 HD           8.0090    -7.1260    -0.1520 hn         1 4J5       0.348000
     15 HB2          5.1050    -7.5580    -2.0610 hc         1 4J5       0.044200
     16 HB3          6.1750    -6.2470    -2.4840 hc         1 4J5       0.044200
     17 HG2          5.7390    -7.5590     0.1130 h1         1 4J5       0.091700
     18 HG3          5.4330    -5.8340     0.2940 h1         1 4J5       0.091700
     19 HH11         9.8280    -4.2410    -0.2340 hn         1 4J5       0.371750
     20 HH12         9.8450    -5.9300     0.0500 hn         1 4J5       0.371750
     21 HH21         6.4070    -4.1560    -0.9890 hn         1 4J5       0.371750
     22 HH22         7.8310    -3.2020    -0.8570 hn         1 4J5       0.371750
     23 HNA          3.8030    -3.5670    -1.7190 hn         1 4J5       0.421000
@<TRIPOS>BOND
     1     1     2 1   
     2     2     4 1   
     3     2     5 1   
     4     3     5 1   
     5     3    12 1   
     6     3    23 1   
     7     5     6 1   
     8     5    13 1   
     9     6     9 1   
    10     6    15 1   
    11     6    16 1   
    12     7     8 2   
    13     7     9 1   
    14     7    14 1   
    15     8    10 1   
    16     8    11 1   
    17     9    17 1   
    18     9    18 1   
    19    10    19 1   
    20    10    20 1   
    21    11    21 1   
    22    11    22 1   
@<TRIPOS>SUBSTRUCTURE
     1 4J5         1 TEMP              0 ****  ****    0 ROOT
