@<TRIPOS>MOLECULE
4J6
   52    53     1     0     0
SMALL
bcc


@<TRIPOS>ATOM
      1 CAA          6.7070     0.2560    -1.4360 c3         1 4J6      -0.131100
      2 CAB          2.7080    -1.4960     1.9290 c3         1 4J6      -0.086100
      3 NAC         -3.5890     2.1530     1.0690 n8         1 4J6      -0.957700
      4 OAE          0.5200     3.0150    -0.5080 o          1 4J6      -0.809800
      5 OAF         -5.7620     1.7510    -0.0400 o          1 4J6      -0.660300
      6 OAG         -3.9420     2.7390    -1.4260 o          1 4J6      -0.660300
      7 OAH         -0.6920     2.1180     1.1470 o          1 4J6      -0.809800
      8 OAI          4.5910     0.4250    -2.5870 oh         1 4J6      -0.585800
      9 CAJ          5.0150     0.1570     1.0950 c          1 4J6       0.594900
     10 CAK         -0.8180    -2.1990    -1.1090 c5         1 4J6       0.173800
     11 CAM         -2.3690    -2.8110     0.5570 c5         1 4J6      -0.080400
     12 NAN          2.4680     1.0940    -0.0760 nu         1 4J6      -0.713000
     13 NAO         -2.0780    -1.5460    -1.4380 n7         1 4J6      -0.813200
     14 SAQ         -0.5860    -0.9320     1.3830 ss         1 4J6      -0.192700
     15 CAS          1.1450     0.9310     0.3220 ce         1 4J6       0.090800
     16 CAT          5.2180     0.5530    -1.3310 c3         1 4J6       0.148100
     17 CAU          2.1490    -1.1620     0.5500 c5         1 4J6      -0.006500
     18 CAV         -3.1060    -1.9430    -0.4710 c5         1 4J6       0.173500
     19 CAW         -0.9010    -2.4380     0.3880 c5         1 4J6      -0.023600
     20 CAX          4.5180    -0.3180    -0.2450 c3         1 4J6      -0.210700
     21 CAY          2.9920    -0.2390    -0.3630 c5         1 4J6       0.189500
     22 CAZ          0.8830    -0.3360     0.6680 c2         1 4J6      -0.175600
     23 SBA         -4.3450     1.8380    -0.3530 s6         1 4J6       1.407800
     24 H1           7.1520     0.8690    -2.2210 hc         1 4J6       0.041033
     25 H2           7.2360     0.4740    -0.5110 hc         1 4J6       0.041033
     26 H3           6.8830    -0.7940    -1.6800 hc         1 4J6       0.041033
     27 H4           2.9230    -0.6000     2.5150 hc         1 4J6       0.034033
     28 H5           1.9680    -2.0720     2.4860 hc         1 4J6       0.034033
     29 H6           3.6130    -2.1020     1.8730 hc         1 4J6       0.034033
     30 H7          -3.9540     2.9890     1.5140 hn         1 4J6       0.450300
     31 H8          -2.5580     2.1680     0.9970 hn         1 4J6       0.450300
     32 H11          4.7240    -0.4740    -2.9060 ho         1 4J6       0.394000
     33 H12          4.4910     1.0500     1.4800 h4         1 4J6       0.022200
     34 H14         -0.7060    -3.1700    -1.6070 h1         1 4J6       0.037200
     35 H15          0.0360    -1.5820    -1.3970 h1         1 4J6       0.037200
     36 H16         -3.2130    -0.4200     1.0870 h1         1 4J6       0.059200
     37 H17         -4.7830    -0.9770     0.4890 h1         1 4J6       0.059200
     38 H18         -2.7400    -2.6730     1.5750 hc         1 4J6       0.045200
     39 H19         -2.4860    -3.8690     0.3120 hc         1 4J6       0.045200
     40 H20          2.5760     1.7740    -0.8140 hn         1 4J6       0.422800
     41 H21         -2.3620    -1.7580    -2.3820 hn         1 4J6       0.357800
     42 H23         -2.9040     0.3880    -1.2830 hn         1 4J6       0.464800
     43 H24          5.0950     1.6060    -1.0610 h1         1 4J6       0.084700
     44 H25          1.9750    -2.1070     0.0260 hc         1 4J6       0.028700
     45 H26         -3.8900    -2.5220    -0.9660 h1         1 4J6       0.030700
     46 H27         -0.2340    -3.2380     0.7110 h1         1 4J6       0.058700
     47 H28          4.8330    -1.3590    -0.3890 hc         1 4J6       0.059700
     48 H29          2.7310    -0.5200    -1.3920 h1         1 4J6       0.035700
     49 CAR          0.2360     2.1300     0.3180 c          1 4J6       0.938800
     50 CAL         -3.7670    -0.7150     0.1900 c3         1 4J6       0.213800
     51 NAP         -3.7990     0.3660    -0.7830 n7         1 4J6      -0.833100
     52 OAD          5.8910    -0.3670     1.7290 o          1 4J6      -0.549100
@<TRIPOS>BOND
     1     1    16 1   
     2     1    24 1   
     3     1    25 1   
     4     1    26 1   
     5     2    17 1   
     6     2    27 1   
     7     2    28 1   
     8     2    29 1   
     9     3    23 1   
    10     3    30 1   
    11     3    31 1   
    12     4    49 1   
    13     5    23 2   
    14     6    23 2   
    15     7    49 1   
    16     8    16 1   
    17     8    32 1   
    18     9    20 1   
    19     9    33 1   
    20     9    52 2   
    21    10    13 1   
    22    10    19 1   
    23    10    34 1   
    24    10    35 1   
    25    11    18 1   
    26    11    19 1   
    27    11    38 1   
    28    11    39 1   
    29    12    15 1   
    30    12    21 1   
    31    12    40 1   
    32    13    18 1   
    33    13    41 1   
    34    14    19 1   
    35    14    22 1   
    36    15    22 2   
    37    15    49 1   
    38    16    20 1   
    39    16    43 1   
    40    17    21 1   
    41    17    22 1   
    42    17    44 1   
    43    18    45 1   
    44    18    50 1   
    45    19    46 1   
    46    20    21 1   
    47    20    47 1   
    48    21    48 1   
    49    23    51 1   
    50    36    50 1   
    51    37    50 1   
    52    42    51 1   
    53    50    51 1   
@<TRIPOS>SUBSTRUCTURE
     1 4J6         1 TEMP              0 ****  ****    0 ROOT
