@<TRIPOS>MOLECULE
4J6
   52    53     1     0     0
SMALL
No Charge or Current Charge


@<TRIPOS>ATOM
      1 CAA          6.4820     0.4780    -1.6980 c3         1 4J6      -0.131100
      2 CAB          2.8340    -1.7980     1.8920 c3         1 4J6      -0.086100
      3 NAC         -3.6480     2.1820     0.6270 n8         1 4J6      -1.068100
      4 OAE          0.6190     3.2090     0.8810 o          1 4J6      -0.704500
      5 OAF         -4.7290     2.5330    -1.5480 o          1 4J6      -0.589500
      6 OAG         -2.2730     1.8820    -1.3760 o          1 4J6      -0.589500
      7 OAH         -0.9610     1.9290     1.5520 o          1 4J6      -0.704500
      8 OAI          4.4060    -0.0240    -2.7900 oh         1 4J6      -0.648000
      9 CAJ          5.0950     0.1630     0.9150 c          1 4J6       0.594900
     10 CAK         -1.0340    -1.5470    -0.9280 c5         1 4J6       0.173800
     11 CAM         -2.3880    -2.9180     0.6040 c5         1 4J6      -0.080400
     12 NAN          2.4050     1.1260     0.3570 nu         1 4J6      -0.768200
     13 NAO         -2.3450    -1.9050    -1.5310 n7         1 4J6      -0.868400
     14 SAQ         -0.6300    -1.1560     1.8410 ss         1 4J6      -0.240600
     15 CAS          1.1310     0.8810     0.9350 ce         1 4J6       0.090800
     16 CAT          4.9430     0.5170    -1.5800 c3         1 4J6       0.171300
     17 CAU          2.0730    -1.2060     0.6820 c5         1 4J6      -0.006500
     18 CAV         -3.2490    -2.0530    -0.3560 c5         1 4J6       0.173500
     19 CAW         -0.9480    -2.3380     0.4250 c5         1 4J6       0.024300
     20 CAX          4.3810    -0.2800    -0.3710 c3         1 4J6      -0.210700
     21 CAY          2.8340    -0.1660    -0.2350 c5         1 4J6       0.189500
     22 CAZ          0.8570    -0.4240     1.1430 c2         1 4J6      -0.175600
     23 SBA         -3.6490     1.7800    -0.9270 s6         1 4J6       1.266200
     24 H1           6.8100     0.9810    -2.6160 hc         1 4J6       0.041033
     25 H2           6.9580     0.9930    -0.8550 hc         1 4J6       0.041033
     26 H3           6.8510    -0.5550    -1.7230 hc         1 4J6       0.041033
     27 H4           3.1630    -1.0130     2.5830 hc         1 4J6       0.034033
     28 H5           2.1890    -2.4810     2.4570 hc         1 4J6       0.034033
     29 H6           3.7100    -2.3730     1.5720 hc         1 4J6       0.034033
     30 H7          -3.6840     3.1910     0.5470 hn         1 4J6       0.505500
     31 H8          -2.6530     2.0360     0.8460 hn         1 4J6       0.505500
     32 H11          4.8120    -0.9090    -2.9130 ho         1 4J6       0.433000
     33 H12          4.9190     1.2140     1.2340 h4         1 4J6       0.022200
     34 H14         -0.2040    -1.7990    -1.6020 h1         1 4J6       0.037200
     35 H15         -0.9920    -0.4640    -0.7550 h1         1 4J6       0.037200
     36 H16         -2.8780    -0.2410     0.7670 h1         1 4J6       0.059200
     37 H17         -4.5540    -0.7920     0.8910 h1         1 4J6       0.059200
     38 H18         -2.7460    -2.8890     1.6400 hc         1 4J6       0.045200
     39 H19         -2.4140    -3.9680     0.2930 hc         1 4J6       0.045200
     40 H20          2.4790     2.0100    -0.1530 hn         1 4J6       0.478000
     41 H21         -2.2490    -2.8310    -1.9660 hn         1 4J6       0.413000
     42 H23         -3.4080    -0.1070    -1.6670 hn         1 4J6       0.520000
     43 H24          4.6400     1.5700    -1.4780 h1         1 4J6       0.084700
     44 H25          1.7840    -2.0660     0.0700 hc         1 4J6       0.028700
     45 H26         -4.1570    -2.5970    -0.6540 h1         1 4J6       0.030700
     46 H27         -0.1900    -3.1310     0.4080 h1         1 4J6       0.058700
     47 H28          4.6360    -1.3340    -0.5320 hc         1 4J6       0.059700
     48 H29          2.4050    -0.2550    -1.2430 h1         1 4J6       0.035700
     49 CAR          0.1860     2.0930     1.1530 c          1 4J6       0.728200
     50 CAL         -3.7110    -0.6670     0.1980 c3         1 4J6       0.213800
     51 NAP         -4.0600     0.1980    -0.9400 n7         1 4J6      -0.888300
     52 OAD          5.8410    -0.5710     1.5570 o          1 4J6      -0.549100
@<TRIPOS>BOND
     1     1    16 1   
     2     1    24 1   
     3     1    25 1   
     4     1    26 1   
     5     2    17 1   
     6     2    27 1   
     7     2    28 1   
     8     2    29 1   
     9     3    23 1   
    10     3    30 1   
    11     3    31 1   
    12     4    49 1   
    13     5    23 2   
    14     6    23 2   
    15     7    49 1   
    16     8    16 1   
    17     8    32 1   
    18     9    20 1   
    19     9    33 1   
    20     9    52 2   
    21    10    13 1   
    22    10    19 1   
    23    10    34 1   
    24    10    35 1   
    25    11    18 1   
    26    11    19 1   
    27    11    38 1   
    28    11    39 1   
    29    12    15 1   
    30    12    21 1   
    31    12    40 1   
    32    13    18 1   
    33    13    41 1   
    34    14    19 1   
    35    14    22 1   
    36    15    22 2   
    37    15    49 1   
    38    16    20 1   
    39    16    43 1   
    40    17    21 1   
    41    17    22 1   
    42    17    44 1   
    43    18    45 1   
    44    18    50 1   
    45    19    46 1   
    46    20    21 1   
    47    20    47 1   
    48    21    48 1   
    49    23    51 1   
    50    36    50 1   
    51    37    50 1   
    52    42    51 1   
    53    50    51 1   
@<TRIPOS>SUBSTRUCTURE
     1 4J6         1 TEMP              0 ****  ****    0 ROOT
