@<TRIPOS>MOLECULE
4J7
   68    72     1     0     0
SMALL
No Charge or Current Charge


@<TRIPOS>ATOM
      1 C12        -18.9510    27.2720    48.3220 ca         1 4J7      -0.049000
      2 C13        -19.8940    26.2680    48.0370 ca         1 4J7      -0.062000
      3 O16        -16.9120    29.5360    48.4780 o          1 4J7      -0.509500
      4 C11        -19.3810    28.5510    48.7370 ca         1 4J7      -0.233500
      5 C22        -21.5760    29.4890    53.2400 ca         1 4J7      -0.017000
      6 C21        -20.9060    30.7160    53.0420 ca         1 4J7      -0.212200
      7 C23        -21.0400    28.3010    52.7180 ca         1 4J7      -0.130000
      8 C24        -19.8410    28.3250    51.9910 ca         1 4J7      -0.040000
      9 C37        -26.6120    28.2130    43.4150 c3         1 4J7       0.131900
     10 C5         -24.6520    27.0040    44.3060 ca         1 4J7      -0.139900
     11 C4         -23.3330    27.3790    44.6260 ca         1 4J7       0.413900
     12 N29        -22.6870    28.3640    43.8830 nu         1 4J7      -0.923900
     13 C30        -21.5190    29.0710    44.0720 cc         1 4J7       0.248000
     14 N31        -21.2120    30.2780    43.4540 na         1 4J7      -0.061200
     15 N32        -19.9480    30.7630    43.7730 nc         1 4J7      -0.515800
     16 C33        -19.4830    29.8270    44.5800 cd         1 4J7       0.277300
     17 C35        -18.1050    29.9350    45.1670 c3         1 4J7      -0.126400
     18 C34        -20.3980    28.7760    44.7820 cd         1 4J7      -0.238000
     19 N3         -22.6710    26.8490    45.6610 nb         1 4J7      -0.254000
     20 C2         -23.3190    25.9320    46.3990 ca         1 4J7       0.301300
     21 C8         -21.2700    26.5270    48.1670 ca         1 4J7      -0.122000
     22 C9         -21.7000    27.8030    48.5830 ca         1 4J7       0.198000
     23 F14        -23.0190    28.0660    48.7280 f          1 4J7      -0.157000
     24 C10        -20.7650    28.8120    48.8610 ca         1 4J7      -0.063000
     25 S15        -18.1750    29.8290    49.1660 sy         1 4J7       1.057500
     26 O17        -18.8210    31.1430    49.0400 o          1 4J7      -0.509500
     27 C18        -17.8820    29.5450    50.9320 c3         1 4J7      -0.234100
     28 C19        -19.1700    29.5420    51.7660 ca         1 4J7      -0.128300
     29 O27        -22.7090    32.0280    53.7300 o          1 4J7      -0.378000
     30 O28        -20.7040    32.8190    54.0560 o          1 4J7      -0.378000
     31 C20        -19.7040    30.7380    52.3000 ca         1 4J7       0.259000
     32 F25        -19.0610    31.9050    52.0640 f          1 4J7      -0.124000
     33 N1         -24.5630    25.4760    46.1680 nb         1 4J7      -0.263000
     34 C6         -25.2340    25.9950    45.1210 ca         1 4J7       0.403900
     35 N38        -26.5070    25.4240    44.8720 nh         1 4J7      -0.771300
     36 C43        -27.3360    24.8770    45.9990 c6         1 4J7       0.176300
     37 C42        -28.8270    24.6870    45.5890 c6         1 4J7       0.142600
     38 O41        -28.9290    23.9050    44.3760 os         1 4J7      -0.451000
     39 C40        -28.2480    24.5230    43.2590 c6         1 4J7       0.142600
     40 C39        -26.7340    24.7130    43.5700 c6         1 4J7       0.176300
     41 H1         -17.8900    27.0480    48.2270 ha         1 4J7       0.141000
     42 H2         -19.5530    25.2850    47.7190 ha         1 4J7       0.138000
     43 H3         -22.5070    29.4470    53.8060 ha         1 4J7       0.156000
     44 H4         -21.5570    27.3570    52.8780 ha         1 4J7       0.139000
     45 H5         -19.4410    27.3960    51.5870 ha         1 4J7       0.128000
     46 H6         -26.9010    28.7640    42.5120 h1         1 4J7       0.043700
     47 H7         -27.3770    27.4520    43.5970 h1         1 4J7       0.043700
     48 H8         -26.6160    28.9160    44.2580 h1         1 4J7       0.043700
     49 H9         -23.2960    28.7270    43.1490 hn         1 4J7       0.516000
     50 H10        -21.8280    30.7880    42.8290 hn         1 4J7       0.367000
     51 H11        -17.3530    30.0710    44.3820 hc         1 4J7       0.051367
     52 H12        -18.0380    30.7870    45.8530 hc         1 4J7       0.051367
     53 H13        -17.8440    29.0290    45.7260 hc         1 4J7       0.051367
     54 H14        -20.2300    27.8960    45.3870 ha         1 4J7       0.160000
     55 H15        -21.1210    29.7850    49.1900 ha         1 4J7       0.161000
     56 H16        -17.3730    28.5780    51.0080 h1         1 4J7       0.115200
     57 H17        -17.1920    30.3270    51.2670 h1         1 4J7       0.115200
     58 H18        -26.9360    23.9060    46.3280 h1         1 4J7       0.067950
     59 H19        -27.3010    25.5560    46.8640 h1         1 4J7       0.067950
     60 H20        -29.2960    25.6690    45.4270 h1         1 4J7       0.055700
     61 H21        -29.3730    24.1780    46.3950 h1         1 4J7       0.055700
     62 H22        -28.7110    25.4980    43.0480 h1         1 4J7       0.055700
     63 H23        -28.3690    23.8910    42.3680 h1         1 4J7       0.055700
     64 H24        -26.2550    23.7230    43.5980 h1         1 4J7       0.067950
     65 H25        -26.2770    25.2660    42.7370 h1         1 4J7       0.067950
     66 S7         -22.4520    25.2240    47.8010 ss         1 4J7      -0.075300
     67 N26        -21.4790    31.9660    53.6070 no         1 4J7       0.684200
     68 O36        -25.3020    27.6340    43.2460 os         1 4J7      -0.359100
@<TRIPOS>BOND
     1     1     2 ar  
     2     1     4 ar  
     3     1    41 1   
     4     2    21 ar  
     5     2    42 1   
     6     3    25 2   
     7     4    24 ar  
     8     4    25 1   
     9     5     6 ar  
    10     5     7 ar  
    11     5    43 1   
    12     6    31 ar  
    13     6    67 1   
    14     7     8 ar  
    15     7    44 1   
    16     8    28 ar  
    17     8    45 1   
    18     9    46 1   
    19     9    47 1   
    20     9    48 1   
    21     9    68 1   
    22    10    11 ar  
    23    10    34 ar  
    24    10    68 1   
    25    11    12 1   
    26    11    19 ar  
    27    12    13 1   
    28    12    49 1   
    29    13    14 1   
    30    13    18 2   
    31    14    15 1   
    32    14    50 1   
    33    15    16 2   
    34    16    17 1   
    35    16    18 1   
    36    17    51 1   
    37    17    52 1   
    38    17    53 1   
    39    18    54 1   
    40    19    20 ar  
    41    20    33 ar  
    42    20    66 1   
    43    21    22 ar  
    44    21    66 1   
    45    22    23 1   
    46    22    24 ar  
    47    24    55 1   
    48    25    26 2   
    49    25    27 1   
    50    27    28 1   
    51    27    56 1   
    52    27    57 1   
    53    28    31 ar  
    54    29    67 1   
    55    30    67 1   
    56    31    32 1   
    57    33    34 ar  
    58    34    35 1   
    59    35    36 1   
    60    35    40 1   
    61    36    37 1   
    62    36    58 1   
    63    36    59 1   
    64    37    38 1   
    65    37    60 1   
    66    37    61 1   
    67    38    39 1   
    68    39    40 1   
    69    39    62 1   
    70    39    63 1   
    71    40    64 1   
    72    40    65 1   
@<TRIPOS>SUBSTRUCTURE
     1 4J7         1 TEMP              0 ****  ****    0 ROOT
