@<TRIPOS>MOLECULE
4J7
   68    72     1     0     0
SMALL
abcg2


@<TRIPOS>ATOM
      1 C12        -18.9110    27.1130    48.5150 ca         1 4J7      -0.049000
      2 C13        -19.8890    26.1820    48.1900 ca         1 4J7      -0.062000
      3 O16        -16.7880    29.2570    48.7150 o          1 4J7      -0.509500
      4 C11        -19.2890    28.4250    48.7690 ca         1 4J7      -0.233500
      5 C22        -21.8110    29.6700    52.9370 ca         1 4J7      -0.017000
      6 C21        -21.0060    30.7940    52.7890 ca         1 4J7      -0.212200
      7 C23        -21.3370    28.4350    52.5300 ca         1 4J7      -0.130000
      8 C24        -20.0770    28.3330    51.9540 ca         1 4J7      -0.040000
      9 C37        -26.3290    28.4070    43.6450 c3         1 4J7       0.131900
     10 C5         -24.6400    26.8870    44.2930 ca         1 4J7      -0.139900
     11 C4         -23.3620    27.3610    44.6170 ca         1 4J7       0.413900
     12 N29        -22.8140    28.3460    43.8450 nu         1 4J7      -0.923900
     13 C30        -21.6090    28.9910    44.0400 cc         1 4J7       0.248000
     14 N31        -21.2340    29.9760    43.1890 na         1 4J7      -0.061200
     15 N32        -20.0290    30.5160    43.5190 nc         1 4J7      -0.515800
     16 C33        -19.6440    29.8510    44.6050 cd         1 4J7       0.277300
     17 C35        -18.3630    30.1730    45.3000 c3         1 4J7      -0.126400
     18 C34        -20.5960    28.8740    44.9780 cd         1 4J7      -0.238000
     19 N3         -22.6710    26.8860    45.6640 nb         1 4J7      -0.254000
     20 C2         -23.2990    25.9760    46.3840 ca         1 4J7       0.301300
     21 C8         -21.2350    26.5460    48.1370 ca         1 4J7      -0.122000
     22 C9         -21.5680    27.8730    48.4080 ca         1 4J7       0.198000
     23 F14        -22.8570    28.2490    48.3850 f          1 4J7      -0.157000
     24 C10        -20.6200    28.8250    48.7140 ca         1 4J7      -0.063000
     25 S15        -18.0720    29.6100    49.2860 sy         1 4J7       1.057500
     26 O17        -18.6060    30.9370    49.0550 o          1 4J7      -0.509500
     27 C18        -17.9490    29.3410    51.0770 c3         1 4J7      -0.234100
     28 C19        -19.2690    29.4550    51.7690 ca         1 4J7      -0.128300
     29 O27        -22.7280    32.2370    53.2680 o          1 4J7      -0.378000
     30 O28        -20.7130    32.9120    53.6580 o          1 4J7      -0.378000
     31 C20        -19.7440    30.6860    52.2060 ca         1 4J7       0.259000
     32 F25        -18.9810    31.7670    52.0220 f          1 4J7      -0.124000
     33 N1         -24.4760    25.4240    46.1630 nb         1 4J7      -0.263000
     34 C6         -25.1710    25.8490    45.0800 ca         1 4J7       0.403900
     35 N38        -26.3940    25.2790    44.8580 nh         1 4J7      -0.771300
     36 C43        -26.9420    24.3430    45.8390 c6         1 4J7       0.176300
     37 C42        -28.4600    24.3620    45.7610 c6         1 4J7       0.142600
     38 O41        -28.9300    24.0700    44.4470 os         1 4J7      -0.451000
     39 C40        -28.4150    25.0120    43.5100 c6         1 4J7       0.142600
     40 C39        -26.8960    25.0160    43.5050 c6         1 4J7       0.176300
     41 H1         -17.8720    26.8210    48.5620 ha         1 4J7       0.141000
     42 H2         -19.6110    25.1600    47.9720 ha         1 4J7       0.138000
     43 H3         -22.7870    29.7790    53.3860 ha         1 4J7       0.156000
     44 H4         -21.9480    27.5530    52.6600 ha         1 4J7       0.139000
     45 H5         -19.7100    27.3690    51.6270 ha         1 4J7       0.128000
     46 H6         -26.7580    28.8050    42.7280 h1         1 4J7       0.043700
     47 H7         -27.0980    27.8960    44.2240 h1         1 4J7       0.043700
     48 H8         -25.8950    29.2150    44.2380 h1         1 4J7       0.043700
     49 H9         -23.3800    28.6410    43.0620 hn         1 4J7       0.516000
     50 H10        -21.7390    30.3150    42.3850 hn         1 4J7       0.367000
     51 H11        -17.7640    30.8570    44.6990 hc         1 4J7       0.051367
     52 H12        -18.5510    30.6420    46.2680 hc         1 4J7       0.051367
     53 H13        -17.7800    29.2690    45.4870 hc         1 4J7       0.051367
     54 H14        -20.5520    28.1890    45.8000 ha         1 4J7       0.160000
     55 H15        -20.9180    29.8430    48.9200 ha         1 4J7       0.161000
     56 H16        -17.5200    28.3470    51.1920 h1         1 4J7       0.115200
     57 H17        -17.2250    30.0900    51.3980 h1         1 4J7       0.115200
     58 H18        -26.5700    23.3290    45.6450 h1         1 4J7       0.067950
     59 H19        -26.6250    24.6350    46.8350 h1         1 4J7       0.067950
     60 H20        -28.8320    25.3470    46.0720 h1         1 4J7       0.055700
     61 H21        -28.8750    23.6020    46.4210 h1         1 4J7       0.055700
     62 H22        -28.7890    26.0140    43.7530 h1         1 4J7       0.055700
     63 H23        -28.7900    24.7210    42.5290 h1         1 4J7       0.055700
     64 H24        -26.5320    24.0340    43.1760 h1         1 4J7       0.067950
     65 H25        -26.5300    25.7650    42.8120 h1         1 4J7       0.067950
     66 S7         -22.4790    25.3240    47.8350 ss         1 4J7      -0.075300
     67 N26        -21.5150    32.0770    53.2670 no         1 4J7       0.684200
     68 O36        -25.2980    27.4820    43.2410 os         1 4J7      -0.359100
@<TRIPOS>BOND
     1     1     2 ar  
     2     1     4 ar  
     3     1    41 1   
     4     2    21 ar  
     5     2    42 1   
     6     3    25 2   
     7     4    24 ar  
     8     4    25 1   
     9     5     6 ar  
    10     5     7 ar  
    11     5    43 1   
    12     6    31 ar  
    13     6    67 1   
    14     7     8 ar  
    15     7    44 1   
    16     8    28 ar  
    17     8    45 1   
    18     9    46 1   
    19     9    47 1   
    20     9    48 1   
    21     9    68 1   
    22    10    11 ar  
    23    10    34 ar  
    24    10    68 1   
    25    11    12 1   
    26    11    19 ar  
    27    12    13 1   
    28    12    49 1   
    29    13    14 1   
    30    13    18 2   
    31    14    15 1   
    32    14    50 1   
    33    15    16 2   
    34    16    17 1   
    35    16    18 1   
    36    17    51 1   
    37    17    52 1   
    38    17    53 1   
    39    18    54 1   
    40    19    20 ar  
    41    20    33 ar  
    42    20    66 1   
    43    21    22 ar  
    44    21    66 1   
    45    22    23 1   
    46    22    24 ar  
    47    24    55 1   
    48    25    26 2   
    49    25    27 1   
    50    27    28 1   
    51    27    56 1   
    52    27    57 1   
    53    28    31 ar  
    54    29    67 1   
    55    30    67 1   
    56    31    32 1   
    57    33    34 ar  
    58    34    35 1   
    59    35    36 1   
    60    35    40 1   
    61    36    37 1   
    62    36    58 1   
    63    36    59 1   
    64    37    38 1   
    65    37    60 1   
    66    37    61 1   
    67    38    39 1   
    68    39    40 1   
    69    39    62 1   
    70    39    63 1   
    71    40    64 1   
    72    40    65 1   
@<TRIPOS>SUBSTRUCTURE
     1 4J7         1 TEMP              0 ****  ****    0 ROOT
