@<TRIPOS>MOLECULE
4J8
   20    20     1     0     0
SMALL
bcc


@<TRIPOS>ATOM
      1 C1          -2.7280     0.0180     0.0060 ca         1 4J8      -0.017300
      2 C2          -2.0420     1.2280    -0.0640 ca         1 4J8      -0.153000
      3 C4           0.0520     0.0770    -0.0170 ca         1 4J8      -0.278500
      4 C6          -1.9890    -1.1650     0.0580 ca         1 4J8      -0.153000
      5 O1           2.3120    -1.0390    -0.8070 o          1 4J8      -0.616300
      6 S            1.8180     0.0990    -0.0430 sy         1 4J8       1.266200
      7 O            2.2450     1.4330    -0.4450 o          1 4J8      -0.616300
      8 N            2.1660    -0.2420     1.5360 n8         1 4J8      -0.891700
      9 C3          -0.6550     1.2680    -0.0770 ca         1 4J8      -0.023000
     10 C5          -0.6060    -1.1450     0.0490 ca         1 4J8      -0.023000
     11 C           -4.2250    -0.0140     0.0460 c3         1 4J8      -0.058800
     12 H1          -2.5960     2.1560    -0.1160 ha         1 4J8       0.136000
     13 H2          -2.5040    -2.1160     0.1040 ha         1 4J8       0.136000
     14 H3           3.1290    -0.5440     1.6460 hn         1 4J8       0.416800
     15 H4           1.9700     0.5370     2.1570 hn         1 4J8       0.416800
     16 H5          -0.1430     2.2180    -0.1390 ha         1 4J8       0.154500
     17 H6          -0.0520    -2.0740     0.0900 ha         1 4J8       0.154500
     18 H7          -4.5790    -0.0190     1.0790 hc         1 4J8       0.049700
     19 H8          -4.6570     0.8590    -0.4410 hc         1 4J8       0.049700
     20 H9          -4.6190    -0.9080    -0.4360 hc         1 4J8       0.049700
@<TRIPOS>BOND
     1     1     2 ar  
     2     1     4 ar  
     3     1    11 1   
     4     2     9 ar  
     5     2    12 1   
     6     3     6 1   
     7     3     9 ar  
     8     3    10 ar  
     9     4    10 ar  
    10     4    13 1   
    11     5     6 2   
    12     6     7 2   
    13     6     8 1   
    14     8    14 1   
    15     8    15 1   
    16     9    16 1   
    17    10    17 1   
    18    11    18 1   
    19    11    19 1   
    20    11    20 1   
@<TRIPOS>SUBSTRUCTURE
     1 4J8         1 TEMP              0 ****  ****    0 ROOT
