@<TRIPOS>MOLECULE
4J8
   20    20     1     0     0
SMALL
No Charge or Current Charge


@<TRIPOS>ATOM
      1 C1          -2.7080     0.0300     0.0360 ca         1 4J8      -0.017300
      2 C2          -1.9710     1.2290     0.0370 ca         1 4J8      -0.135000
      3 C4           0.1150    -0.0310    -0.0390 ca         1 4J8      -0.278500
      4 C6          -2.0250    -1.1990     0.0010 ca         1 4J8      -0.135000
      5 O1           2.3770    -1.3270    -0.6830 o          1 4J8      -0.545500
      6 S            1.9090    -0.0760    -0.0860 sy         1 4J8       1.124600
      7 O            2.4340     1.2330    -0.4670 o          1 4J8      -0.545500
      8 N            2.2800    -0.1970     1.5030 n8         1 4J8      -1.002100
      9 C3          -0.5660     1.2040    -0.0010 ca         1 4J8      -0.005000
     10 C5          -0.6200    -1.2340    -0.0370 ca         1 4J8      -0.005000
     11 C           -4.2280     0.0630     0.0810 c3         1 4J8      -0.058800
     12 H1          -2.4880     2.1850     0.0670 ha         1 4J8       0.118000
     13 H2          -2.5830    -2.1330     0.0050 ha         1 4J8       0.118000
     14 H3           2.9360     0.5740     1.6060 hn         1 4J8       0.472000
     15 H4           1.4320     0.1440     1.9490 hn         1 4J8       0.472000
     16 H5          -0.0160     2.1440    -0.0030 ha         1 4J8       0.136500
     17 H6          -0.1090    -2.1960    -0.0620 ha         1 4J8       0.136500
     18 H7          -4.5870     0.0570     1.1170 hc         1 4J8       0.049700
     19 H8          -4.6230     0.9620    -0.4060 hc         1 4J8       0.049700
     20 H9          -4.6620    -0.8050    -0.4300 hc         1 4J8       0.049700
@<TRIPOS>BOND
     1     1     2 ar  
     2     1     4 ar  
     3     1    11 1   
     4     2     9 ar  
     5     2    12 1   
     6     3     6 1   
     7     3     9 ar  
     8     3    10 ar  
     9     4    10 ar  
    10     4    13 1   
    11     5     6 2   
    12     6     7 2   
    13     6     8 1   
    14     8    14 1   
    15     8    15 1   
    16     9    16 1   
    17    10    17 1   
    18    11    18 1   
    19    11    19 1   
    20    11    20 1   
@<TRIPOS>SUBSTRUCTURE
     1 4J8         1 TEMP              0 ****  ****    0 ROOT
