@<TRIPOS>MOLECULE
4J9
  136   144     1     0     0
SMALL
abcg2


@<TRIPOS>ATOM
      1 C14         -9.0180     2.2530    -1.0070 c6         1 4J9       0.049300
      2 C6          -7.8170     1.7070    -1.7970 c6         1 4J9       0.159300
      3 C11         -5.0120     3.2850    -0.0990 cc         1 4J9       0.197300
      4 C7          -8.6820     2.3830     0.4760 c6         1 4J9       0.166300
      5 C8          -8.0790     1.7100    -3.2890 c3         1 4J9       0.167600
      6 C10         -6.2960     2.5430    -0.2020 c6         1 4J9       0.127000
      7 N1          -3.6980     4.9860    -0.0830 nd         1 4J9      -0.186800
      8 C3          -3.7570     2.8040     0.1620 cd         1 4J9      -0.179000
      9 C2          -7.4020     3.1910     0.6370 c6         1 4J9       0.108300
     10 N4          -2.9790     3.8990     0.1610 na         1 4J9       0.129800
     11 O5          -9.7800     2.9790     1.1070 oh         1 4J9      -0.639000
     12 O9          -6.6930     2.5200    -1.5580 os         1 4J9      -0.417000
     13 N12         -4.9200     4.6260    -0.2390 nc         1 4J9      -0.343000
     14 N13        -10.1870     1.4160    -1.1800 na         1 4J9       0.131800
     15 C15        -10.3570     0.1320    -0.8110 cc         1 4J9      -0.191000
     16 C16        -11.6360    -0.1560    -1.2070 cd         1 4J9       0.198300
     17 N17        -12.1550     0.9480    -1.7810 nd         1 4J9      -0.356000
     18 N18        -11.2740     1.8890    -1.7610 nc         1 4J9      -0.188800
     19 C19        -12.3960    -1.4280    -1.0640 c3         1 4J9       0.151300
     20 O20        -11.5550    -2.3410    -0.3960 os         1 4J9      -0.462000
     21 O21        -12.9780    -3.7780     0.6060 os         1 4J9      -0.453000
     22 C22        -11.9900    -3.6510    -0.3790 c6         1 4J9       0.371300
     23 C23        -12.4120    -6.0870     1.0650 c6         1 4J9       0.144300
     24 C24        -13.5030    -5.0880     0.6930 c6         1 4J9       0.183300
     25 O25        -11.9700    -5.8130     2.3720 oh         1 4J9      -0.709000
     26 O26        -10.2560    -6.8620     0.4520 oh         1 4J9      -0.667000
     27 C27        -10.7940    -4.5440    -0.0590 c6         1 4J9       0.106300
     28 C28        -11.2780    -5.9840     0.0490 c6         1 4J9       0.141300
     29 C29        -14.6440    -5.0810     1.6880 c3         1 4J9       0.172600
     30 O30         -9.8270    -4.4960    -1.0780 oh         1 4J9      -0.728000
     31 O31        -15.6950    -4.3090     1.1570 oh         1 4J9      -0.716000
     32 O32         -7.0740     3.1980     2.0030 oh         1 4J9      -0.723000
     33 O33         -6.9860     1.1070    -3.9330 oh         1 4J9      -0.712000
     34 C59         -1.5500     4.0020     0.3740 c6         1 4J9       0.048300
     35 C61         -1.1610     3.3000     1.6710 c6         1 4J9       0.164300
     36 C62         -0.7650     3.4250    -0.8160 c6         1 4J9       0.166300
     37 C63          4.5430     2.4630     0.6420 cc         1 4J9       0.192300
     38 C64          0.3520     3.3650     1.8470 c6         1 4J9       0.100300
     39 N65          2.4410     2.8520     0.6660 na         1 4J9       0.112800
     40 N66          4.3200     3.7570     0.9760 nc         1 4J9      -0.333000
     41 N67          3.0580     3.9800     0.9920 nd         1 4J9      -0.192800
     42 C68          1.0050     2.7940     0.5870 c6         1 4J9       0.293300
     43 C69          3.3290     1.8680     0.4360 cd         1 4J9      -0.156000
     44 O70          0.6180     3.5190    -0.5420 os         1 4J9      -0.427000
     45 C71         -1.0310     4.1920    -2.0940 c3         1 4J9       0.169600
     46 O72         -1.8430     3.9280     2.7160 oh         1 4J9      -0.639000
     47 O73          0.6900     2.6040     2.9740 oh         1 4J9      -0.718000
     48 O74         -0.3410     3.5610    -3.1410 oh         1 4J9      -0.711000
     49 O85          6.5170     1.9860     1.8140 os         1 4J9      -0.414000
     50 C86          5.9090     1.8850     0.5440 c6         1 4J9       0.129000
     51 O88          9.0460     2.7090    -1.3380 oh         1 4J9      -0.639000
     52 O89          6.2280     2.4770    -1.7860 oh         1 4J9      -0.723000
     53 N90         10.0380     1.3840     0.9190 na         1 4J9       0.130800
     54 C92          8.7360     2.0200     0.9000 c6         1 4J9       0.049300
     55 C93          7.7690     1.3490     1.8880 c6         1 4J9       0.159300
     56 C94          8.2610     1.4600     3.3160 c3         1 4J9       0.167600
     57 C95          6.7670     2.6150    -0.4960 c6         1 4J9       0.106300
     58 C96          8.1630     2.0050    -0.5130 c6         1 4J9       0.166300
     59 N97         11.1060     2.0560     1.3080 nc         1 4J9      -0.188800
     60 N98         12.1210     1.2670     1.2300 nd         1 4J9      -0.355000
     61 C99         11.7110     0.0600     0.7870 cd         1 4J9       0.198300
     62 CA0         10.3590     0.1210     0.5790 cc         1 4J9      -0.190000
     63 CA1         12.6430    -1.0840     0.5950 c3         1 4J9       0.151300
     64 OA2         11.9310    -2.0960    -0.0820 os         1 4J9      -0.460000
     65 OA3         13.5860    -3.2840    -1.0500 os         1 4J9      -0.454000
     66 CA4         14.3010    -4.5000    -1.1400 c6         1 4J9       0.182300
     67 CA5         13.3900    -5.6340    -1.5910 c6         1 4J9       0.145300
     68 CA6         12.2010    -5.7270    -0.6370 c6         1 4J9       0.140300
     69 CA7         11.5090    -4.3750    -0.5150 c6         1 4J9       0.106300
     70 CA8         12.5470    -3.3300    -0.1110 c6         1 4J9       0.372300
     71 OA9         10.4980    -4.5020     0.4550 oh         1 4J9      -0.727000
     72 OB0         11.3380    -6.7250    -1.1210 oh         1 4J9      -0.667000
     73 OB1         12.9790    -5.3890    -2.9130 oh         1 4J9      -0.709000
     74 H42         -9.2890     3.2370    -1.4010 h1         1 4J9       0.118700
     75 H37         -7.6130     0.6740    -1.4680 h1         1 4J9       0.050700
     76 H38         -8.4890     1.3760     0.8810 h1         1 4J9       0.042700
     77 H39         -9.0120     1.1700    -3.4880 h1         1 4J9       0.040700
     78 H40         -8.2330     2.7470    -3.6180 h1         1 4J9       0.040700
     79 H41         -6.1310     1.5180     0.1640 h1         1 4J9       0.049700
     80 H35         -3.3940     1.8060     0.3430 h4         1 4J9       0.170000
     81 H34         -7.5770     4.2080     0.2600 h1         1 4J9       0.080700
     82 H36         -9.6010     3.0140     2.0530 ho         1 4J9       0.467000
     83 H43         -9.5970    -0.4480    -0.3170 h4         1 4J9       0.170000
     84 H45        -13.3240    -1.2520    -0.5100 h1         1 4J9       0.056700
     85 H44        -12.6800    -1.8130    -2.0520 h1         1 4J9       0.056700
     86 H46        -12.4030    -3.9360    -1.3660 h2         1 4J9       0.031700
     87 H47        -12.8460    -7.0960     0.9960 h1         1 4J9       0.050700
     88 H48        -13.9040    -5.4010    -0.2850 h1         1 4J9       0.048700
     89 H49        -11.2270    -6.3940     2.5620 ho         1 4J9       0.521000
     90 H50         -9.4850    -6.7130    -0.1050 ho         1 4J9       0.469000
     91 H51        -10.3770    -4.2300     0.9090 h1         1 4J9       0.075700
     92 H52        -11.6840    -6.2790    -0.9310 h1         1 4J9       0.048700
     93 H53        -14.9500    -6.1220     1.8550 h1         1 4J9       0.039200
     94 H54        -14.2970    -4.6880     2.6490 h1         1 4J9       0.039200
     95 H55         -9.3900    -3.6390    -1.0500 ho         1 4J9       0.522000
     96 H56        -16.4050    -4.2880     1.8040 ho         1 4J9       0.507000
     97 H57         -6.5200     3.9630     2.1850 ho         1 4J9       0.526000
     98 H58         -7.1710     1.0870    -4.8760 ho         1 4J9       0.510000
     99 H60         -1.3360     5.0700     0.4640 h1         1 4J9       0.123700
    100 H75         -1.4420     2.2370     1.5960 h1         1 4J9       0.043700
    101 H76         -1.0490     2.3710    -0.9590 h1         1 4J9       0.058700
    102 H77          0.6460     4.4160     1.9570 h1         1 4J9       0.092700
    103 H78          0.7410     1.7320     0.4890 h2         1 4J9       0.065700
    104 H79          3.0440     0.8690     0.1550 h4         1 4J9       0.176000
    105 H80         -2.1120     4.2100    -2.2730 h1         1 4J9       0.046200
    106 H81         -0.7120     5.2340    -1.9530 h1         1 4J9       0.046200
    107 H82         -1.6890     3.4270     3.5240 ho         1 4J9       0.470000
    108 H83          1.4670     2.9840     3.3940 ho         1 4J9       0.535000
    109 H84         -0.5210     4.0450    -3.9510 ho         1 4J9       0.517000
    110 H87          5.8200     0.8300     0.2420 h1         1 4J9       0.051700
    111 H114         8.7160     2.6630    -2.2420 ho         1 4J9       0.466000
    112 H115         5.5800     3.1720    -1.9330 ho         1 4J9       0.524000
    113 H116         7.7300     0.7730     5.0420 ho         1 4J9       0.510000
    114 H117         8.9060     3.0550     1.2110 h1         1 4J9       0.118700
    115 H118         7.6650     0.2830     1.6220 h1         1 4J9       0.050700
    116 H119         8.3150     2.5230     3.5880 h1         1 4J9       0.041200
    117 H120         9.2820     1.0650     3.3720 h1         1 4J9       0.041200
    118 H121         6.8530     3.6700    -0.2030 h1         1 4J9       0.078700
    119 H122         8.0650     0.9570    -0.8400 h1         1 4J9       0.042700
    120 H123         9.6390    -0.6000     0.2320 h4         1 4J9       0.168000
    121 H125        13.5230    -0.7590     0.0310 h1         1 4J9       0.057700
    122 H124        13.0010    -1.4490     1.5660 h1         1 4J9       0.057700
    123 H126        14.6970    -4.7790    -0.1500 h1         1 4J9       0.048700
    124 H127        13.9630    -6.5700    -1.5210 h1         1 4J9       0.050700
    125 H128        12.5940    -5.9970     0.3570 h1         1 4J9       0.048700
    126 H129        11.0950    -4.0910    -1.4930 h1         1 4J9       0.075700
    127 H130        12.9550    -3.5860     0.8860 h2         1 4J9       0.031700
    128 H131         9.9210    -3.7340     0.4020 ho         1 4J9       0.521000
    129 H132        10.5300    -6.7160    -0.5960 ho         1 4J9       0.470000
    130 H133        12.3220    -6.0540    -3.1470 ho         1 4J9       0.522000
    131 H134        17.0800    -3.2170    -2.1030 ho         1 4J9       0.507000
    132 O91          7.3830     0.7430     4.1460 oh         1 4J9      -0.711000
    133 CB3         15.4760    -4.2970    -2.0740 c3         1 4J9       0.172600
    134 OB2         16.3730    -3.3920    -1.4760 oh         1 4J9      -0.716000
    135 H135        15.9400    -5.2760    -2.2470 h1         1 4J9       0.039700
    136 H136        15.1190    -3.9320    -3.0440 h1         1 4J9       0.039700
@<TRIPOS>BOND
     1     1     2 1   
     2     1     4 1   
     3     1    14 1   
     4     1    74 1   
     5     2     5 1   
     6     2    12 1   
     7     2    75 1   
     8     3     6 1   
     9     3     8 2   
    10     3    13 1   
    11     4     9 1   
    12     4    11 1   
    13     4    76 1   
    14     5    33 1   
    15     5    77 1   
    16     5    78 1   
    17     6     9 1   
    18     6    12 1   
    19     6    79 1   
    20     7    10 1   
    21     7    13 2   
    22     8    10 1   
    23     8    80 1   
    24     9    32 1   
    25     9    81 1   
    26    10    34 1   
    27    11    82 1   
    28    14    15 1   
    29    14    18 1   
    30    15    16 2   
    31    15    83 1   
    32    16    17 1   
    33    16    19 1   
    34    17    18 2   
    35    19    20 1   
    36    19    84 1   
    37    19    85 1   
    38    20    22 1   
    39    21    22 1   
    40    21    24 1   
    41    22    27 1   
    42    22    86 1   
    43    23    24 1   
    44    23    25 1   
    45    23    28 1   
    46    23    87 1   
    47    24    29 1   
    48    24    88 1   
    49    25    89 1   
    50    26    28 1   
    51    26    90 1   
    52    27    28 1   
    53    27    30 1   
    54    27    91 1   
    55    28    92 1   
    56    29    31 1   
    57    29    93 1   
    58    29    94 1   
    59    30    95 1   
    60    31    96 1   
    61    32    97 1   
    62    33    98 1   
    63    34    35 1   
    64    34    36 1   
    65    34    99 1   
    66    35    38 1   
    67    35    46 1   
    68    35   100 1   
    69    36    44 1   
    70    36    45 1   
    71    36   101 1   
    72    37    40 1   
    73    37    43 2   
    74    37    50 1   
    75    38    42 1   
    76    38    47 1   
    77    38   102 1   
    78    39    41 1   
    79    39    42 1   
    80    39    43 1   
    81    40    41 2   
    82    42    44 1   
    83    42   103 1   
    84    43   104 1   
    85    45    48 1   
    86    45   105 1   
    87    45   106 1   
    88    46   107 1   
    89    47   108 1   
    90    48   109 1   
    91    49    50 1   
    92    49    55 1   
    93    50    57 1   
    94    50   110 1   
    95    51    58 1   
    96    51   111 1   
    97    52    57 1   
    98    52   112 1   
    99    53    54 1   
   100    53    59 1   
   101    53    62 1   
   102    54    55 1   
   103    54    58 1   
   104    54   114 1   
   105    55    56 1   
   106    55   115 1   
   107    56   116 1   
   108    56   117 1   
   109    56   132 1   
   110    57    58 1   
   111    57   118 1   
   112    58   119 1   
   113    59    60 2   
   114    60    61 1   
   115    61    62 2   
   116    61    63 1   
   117    62   120 1   
   118    63    64 1   
   119    63   121 1   
   120    63   122 1   
   121    64    70 1   
   122    65    66 1   
   123    65    70 1   
   124    66    67 1   
   125    66   123 1   
   126    66   133 1   
   127    67    68 1   
   128    67    73 1   
   129    67   124 1   
   130    68    69 1   
   131    68    72 1   
   132    68   125 1   
   133    69    70 1   
   134    69    71 1   
   135    69   126 1   
   136    70   127 1   
   137    71   128 1   
   138    72   129 1   
   139    73   130 1   
   140   113   132 1   
   141   131   134 1   
   142   133   134 1   
   143   133   135 1   
   144   133   136 1   
@<TRIPOS>SUBSTRUCTURE
     1 4J9         1 TEMP              0 ****  ****    0 ROOT
