@<TRIPOS>MOLECULE
4J9
  136   144     1     0     0
SMALL
No Charge or Current Charge


@<TRIPOS>ATOM
      1 C14         -9.0010     2.2720    -1.1680 c6         1 4J9       0.049300
      2 C6          -7.7010     1.7280    -1.8330 c6         1 4J9       0.159300
      3 C11         -5.0550     3.8430    -0.1820 cc         1 4J9       0.197300
      4 C7          -8.7260     2.6180     0.3250 c6         1 4J9       0.166300
      5 C8          -7.8670     1.4650    -3.3690 c3         1 4J9       0.167600
      6 C10         -6.2740     2.9440    -0.2700 c6         1 4J9       0.127000
      7 N1          -3.8660     5.6580    -0.2610 nd         1 4J9      -0.186800
      8 C3          -3.8020     3.4330     0.1550 cd         1 4J9      -0.179000
      9 C2          -7.5050     3.5750     0.4560 c6         1 4J9       0.108300
     10 N4          -3.0720     4.6010     0.1030 na         1 4J9       0.129800
     11 O5          -9.8660     3.2280     0.9450 oh         1 4J9      -0.639000
     12 O9          -6.6200     2.6780    -1.6510 os         1 4J9      -0.417000
     13 N12         -5.0770     5.1890    -0.4290 nc         1 4J9      -0.343000
     14 N13        -10.1130     1.3030    -1.3030 na         1 4J9       0.131800
     15 C15        -10.1670     0.0490    -0.7410 cc         1 4J9      -0.191000
     16 C16        -11.3610    -0.4510    -1.1800 cd         1 4J9       0.198300
     17 N17        -11.9800     0.4890    -1.9780 nd         1 4J9      -0.356000
     18 N18        -11.2230     1.5500    -2.0560 nc         1 4J9      -0.188800
     19 C19        -11.9740    -1.7990    -0.8790 c3         1 4J9       0.151300
     20 O20        -10.9820    -2.8320    -1.0480 os         1 4J9      -0.462000
     21 O21        -11.7850    -4.3220     0.5800 os         1 4J9      -0.453000
     22 C22        -11.4250    -4.1790    -0.8060 c6         1 4J9       0.371300
     23 C23        -11.2810    -6.7600     0.6200 c6         1 4J9       0.144300
     24 C24        -12.3360    -5.6310     0.8910 c6         1 4J9       0.183300
     25 O25        -10.1470    -6.6890     1.5080 oh         1 4J9      -0.709000
     26 O26         -9.7150    -7.5770    -1.1030 oh         1 4J9      -0.667000
     27 C27        -10.2860    -5.1910    -1.1580 c6         1 4J9       0.106300
     28 C28        -10.7780    -6.6390    -0.8540 c6         1 4J9       0.141300
     29 C29        -12.8510    -5.6270     2.3690 c3         1 4J9       0.172600
     30 O30         -9.8470    -5.0770    -2.5350 oh         1 4J9      -0.728000
     31 O31        -13.8680    -4.6330     2.6160 oh         1 4J9      -0.716000
     32 O32         -7.2390     3.8390     1.8520 oh         1 4J9      -0.723000
     33 O33         -6.6530     1.0130    -4.0030 oh         1 4J9      -0.712000
     34 C59         -1.6170     4.7440     0.3450 c6         1 4J9       0.048300
     35 C61         -1.2200     4.2180     1.7560 c6         1 4J9       0.164300
     36 C62         -0.7930     4.0040    -0.7500 c6         1 4J9       0.166300
     37 C63          4.6050     3.1670     0.8490 cc         1 4J9       0.192300
     38 C64          0.3200     4.3000     1.9710 c6         1 4J9       0.100300
     39 N65          2.5130     3.6310     0.8780 na         1 4J9       0.112800
     40 N66          4.4740     4.4920     1.1650 nc         1 4J9      -0.333000
     41 N67          3.1970     4.7860     1.1790 nd         1 4J9      -0.192800
     42 C68          1.0330     3.5510     0.7960 c6         1 4J9       0.293300
     43 C69          3.3880     2.5900     0.6590 cd         1 4J9      -0.156000
     44 O70          0.6230     4.1290    -0.4660 os         1 4J9      -0.427000
     45 C71         -1.0500     4.5600    -2.1920 c3         1 4J9       0.169600
     46 O72         -1.8770     4.9560     2.7960 oh         1 4J9      -0.639000
     47 O73          0.6560     3.7560     3.2740 oh         1 4J9      -0.718000
     48 O74         -0.2420     3.9160    -3.1990 oh         1 4J9      -0.711000
     49 O85          6.5100     2.1950     2.0300 os         1 4J9      -0.414000
     50 C86          5.9390     2.4540     0.7240 c6         1 4J9       0.129000
     51 O88          9.2490     3.2980    -0.9460 oh         1 4J9      -0.639000
     52 O89          6.4600     3.5490    -1.4580 oh         1 4J9      -0.723000
     53 N90         10.0760     1.3550     1.1430 na         1 4J9       0.130800
     54 C92          8.8320     2.1560     1.2100 c6         1 4J9       0.049300
     55 C93          7.7280     1.4080     2.0150 c6         1 4J9       0.159300
     56 C94          8.1430     1.1220     3.4990 c3         1 4J9       0.167600
     57 C95          6.9550     3.2800    -0.1260 c6         1 4J9       0.106300
     58 C96          8.3040     2.5080    -0.2110 c6         1 4J9       0.166300
     59 N97         11.2360     1.7350     1.7520 nc         1 4J9      -0.188800
     60 N98         12.1140     0.7980     1.5170 nd         1 4J9      -0.355000
     61 C99         11.5250    -0.1950     0.7600 cd         1 4J9       0.198300
     62 CA0         10.2240     0.1410     0.5130 cc         1 4J9      -0.190000
     63 CA1         12.2720    -1.4290     0.3090 c3         1 4J9       0.151300
     64 OA2         11.4600    -2.5990     0.5410 os         1 4J9      -0.460000
     65 OA3         12.2370    -3.8940    -1.2570 os         1 4J9      -0.454000
     66 CA4         12.9150    -5.0980    -1.7090 c6         1 4J9       0.182300
     67 CA5         12.0680    -6.3750    -1.3740 c6         1 4J9       0.145300
     68 CA6         11.7500    -6.3850     0.1540 c6         1 4J9       0.140300
     69 CA7         11.1110    -5.0350     0.6010 c6         1 4J9       0.106300
     70 CA8         12.0450    -3.8580     0.1690 c6         1 4J9       0.372300
     71 OA9         10.8450    -5.0400     2.0260 oh         1 4J9      -0.727000
     72 OB0         10.8650    -7.4730     0.4790 oh         1 4J9      -0.667000
     73 OB1         10.8280    -6.4300    -2.1090 oh         1 4J9      -0.709000
     74 H42         -9.2900     3.1950    -1.6870 h1         1 4J9       0.118700
     75 H37         -7.4150     0.7790    -1.3560 h1         1 4J9       0.050700
     76 H38         -8.4780     1.6860     0.8550 h1         1 4J9       0.042700
     77 H39         -8.6590     0.7170    -3.5100 h1         1 4J9       0.040700
     78 H40         -8.2140     2.3960    -3.8380 h1         1 4J9       0.040700
     79 H41         -6.0390     1.9830     0.2110 h1         1 4J9       0.049700
     80 H35         -3.4030     2.4610     0.4110 h4         1 4J9       0.170000
     81 H34         -7.7550     4.5140    -0.0630 h1         1 4J9       0.080700
     82 H36         -9.5100     3.6390     1.7670 ho         1 4J9       0.467000
     83 H43         -9.4000    -0.3750    -0.1090 h4         1 4J9       0.170000
     84 H45        -12.3540    -1.7870     0.1510 h1         1 4J9       0.056700
     85 H44        -12.8250    -1.9670    -1.5520 h1         1 4J9       0.056700
     86 H46        -12.3030    -4.3860    -1.4370 h2         1 4J9       0.031700
     87 H47        -11.7820    -7.7340     0.7330 h1         1 4J9       0.050700
     88 H48        -13.2070    -5.8040     0.2410 h1         1 4J9       0.048700
     89 H49         -9.4350    -7.1800     1.0300 ho         1 4J9       0.521000
     90 H50         -9.3030    -7.2680    -1.9440 ho         1 4J9       0.469000
     91 H51         -9.4440    -4.9670    -0.4860 h1         1 4J9       0.075700
     92 H52        -11.6260    -6.8580    -1.5200 h1         1 4J9       0.048700
     93 H53        -13.2430    -6.6280     2.5940 h1         1 4J9       0.039200
     94 H54        -11.9920    -5.4580     3.0320 h1         1 4J9       0.039200
     95 H55         -9.7330    -4.1110    -2.7060 ho         1 4J9       0.522000
     96 H56        -14.0610    -4.6530     3.5830 ho         1 4J9       0.507000
     97 H57         -6.5750     4.5690     1.8910 ho         1 4J9       0.526000
     98 H58         -6.8360     0.9530    -4.9700 ho         1 4J9       0.510000
     99 H60         -1.3700     5.8140     0.2950 h1         1 4J9       0.123700
    100 H75         -1.5100     3.1590     1.8230 h1         1 4J9       0.043700
    101 H76         -1.0570     2.9350    -0.7490 h1         1 4J9       0.058700
    102 H77          0.6100     5.3620     1.9160 h1         1 4J9       0.092700
    103 H78          0.7770     2.4820     0.8190 h2         1 4J9       0.065700
    104 H79          3.0950     1.5810     0.3990 h4         1 4J9       0.176000
    105 H80         -2.1140     4.4300    -2.4300 h1         1 4J9       0.046200
    106 H81         -0.8490     5.6410    -2.1800 h1         1 4J9       0.046200
    107 H82         -1.3870     4.7200     3.6190 ho         1 4J9       0.470000
    108 H83          1.5900     4.0130     3.4770 ho         1 4J9       0.535000
    109 H84         -0.4150     4.3800    -4.0510 ho         1 4J9       0.517000
    110 H87          5.7760     1.4850     0.2290 h1         1 4J9       0.051700
    111 H114         8.7260     3.6790    -1.6890 ho         1 4J9       0.466000
    112 H115         5.7100     4.1850    -1.3690 ho         1 4J9       0.524000
    113 H116         7.4290     0.4140     5.1950 ho         1 4J9       0.510000
    114 H117         9.0610     3.0950     1.7330 h1         1 4J9       0.118700
    115 H118         7.5130     0.4430     1.5320 h1         1 4J9       0.050700
    116 H119         8.4200     2.0780     3.9650 h1         1 4J9       0.041200
    117 H120         9.0430     0.4920     3.4920 h1         1 4J9       0.041200
    118 H121         7.1420     4.2290     0.4030 h1         1 4J9       0.078700
    119 H122         8.1160     1.5680    -0.7520 h1         1 4J9       0.042700
    120 H123         9.4420    -0.3670    -0.0320 h4         1 4J9       0.168000
    121 H125        12.5070    -1.3230    -0.7580 h1         1 4J9       0.057700
    122 H124        13.2180    -1.5000     0.8610 h1         1 4J9       0.057700
    123 H126        13.8790    -5.1710    -1.1840 h1         1 4J9       0.048700
    124 H127        12.6760    -7.2620    -1.6050 h1         1 4J9       0.050700
    125 H128        12.7000    -6.5080     0.6970 h1         1 4J9       0.048700
    126 H129        10.1660    -4.9060     0.0520 h1         1 4J9       0.075700
    127 H130        13.0180    -3.9630     0.6730 h2         1 4J9       0.031700
    128 H131        10.6220    -4.1070     2.2660 ho         1 4J9       0.521000
    129 H132        10.5300    -7.2610     1.3820 ho         1 4J9       0.470000
    130 H133        10.2580    -7.0360    -1.5750 ho         1 4J9       0.522000
    131 H134        14.1220    -3.7780    -4.5330 ho         1 4J9       0.507000
    132 O91          7.1050     0.4790     4.2660 oh         1 4J9      -0.711000
    133 CB3         13.2260    -4.9620    -3.2360 c3         1 4J9       0.172600
    134 OB2         14.0580    -3.8240    -3.5510 oh         1 4J9      -0.716000
    135 H135        13.7170    -5.8880    -3.5660 h1         1 4J9       0.039700
    136 H136        12.2730    -4.8900    -3.7770 h1         1 4J9       0.039700
@<TRIPOS>BOND
     1     1     2 1   
     2     1     4 1   
     3     1    14 1   
     4     1    74 1   
     5     2     5 1   
     6     2    12 1   
     7     2    75 1   
     8     3     6 1   
     9     3     8 2   
    10     3    13 1   
    11     4     9 1   
    12     4    11 1   
    13     4    76 1   
    14     5    33 1   
    15     5    77 1   
    16     5    78 1   
    17     6     9 1   
    18     6    12 1   
    19     6    79 1   
    20     7    10 1   
    21     7    13 2   
    22     8    10 1   
    23     8    80 1   
    24     9    32 1   
    25     9    81 1   
    26    10    34 1   
    27    11    82 1   
    28    14    15 1   
    29    14    18 1   
    30    15    16 2   
    31    15    83 1   
    32    16    17 1   
    33    16    19 1   
    34    17    18 2   
    35    19    20 1   
    36    19    84 1   
    37    19    85 1   
    38    20    22 1   
    39    21    22 1   
    40    21    24 1   
    41    22    27 1   
    42    22    86 1   
    43    23    24 1   
    44    23    25 1   
    45    23    28 1   
    46    23    87 1   
    47    24    29 1   
    48    24    88 1   
    49    25    89 1   
    50    26    28 1   
    51    26    90 1   
    52    27    28 1   
    53    27    30 1   
    54    27    91 1   
    55    28    92 1   
    56    29    31 1   
    57    29    93 1   
    58    29    94 1   
    59    30    95 1   
    60    31    96 1   
    61    32    97 1   
    62    33    98 1   
    63    34    35 1   
    64    34    36 1   
    65    34    99 1   
    66    35    38 1   
    67    35    46 1   
    68    35   100 1   
    69    36    44 1   
    70    36    45 1   
    71    36   101 1   
    72    37    40 1   
    73    37    43 2   
    74    37    50 1   
    75    38    42 1   
    76    38    47 1   
    77    38   102 1   
    78    39    41 1   
    79    39    42 1   
    80    39    43 1   
    81    40    41 2   
    82    42    44 1   
    83    42   103 1   
    84    43   104 1   
    85    45    48 1   
    86    45   105 1   
    87    45   106 1   
    88    46   107 1   
    89    47   108 1   
    90    48   109 1   
    91    49    50 1   
    92    49    55 1   
    93    50    57 1   
    94    50   110 1   
    95    51    58 1   
    96    51   111 1   
    97    52    57 1   
    98    52   112 1   
    99    53    54 1   
   100    53    59 1   
   101    53    62 1   
   102    54    55 1   
   103    54    58 1   
   104    54   114 1   
   105    55    56 1   
   106    55   115 1   
   107    56   116 1   
   108    56   117 1   
   109    56   132 1   
   110    57    58 1   
   111    57   118 1   
   112    58   119 1   
   113    59    60 2   
   114    60    61 1   
   115    61    62 2   
   116    61    63 1   
   117    62   120 1   
   118    63    64 1   
   119    63   121 1   
   120    63   122 1   
   121    64    70 1   
   122    65    66 1   
   123    65    70 1   
   124    66    67 1   
   125    66   123 1   
   126    66   133 1   
   127    67    68 1   
   128    67    73 1   
   129    67   124 1   
   130    68    69 1   
   131    68    72 1   
   132    68   125 1   
   133    69    70 1   
   134    69    71 1   
   135    69   126 1   
   136    70   127 1   
   137    71   128 1   
   138    72   129 1   
   139    73   130 1   
   140   113   132 1   
   141   131   134 1   
   142   133   134 1   
   143   133   135 1   
   144   133   136 1   
@<TRIPOS>SUBSTRUCTURE
     1 4J9         1 TEMP              0 ****  ****    0 ROOT
