@<TRIPOS>MOLECULE
4JC
   23    23     1     0     0
SMALL
bcc


@<TRIPOS>ATOM
      1 O1           2.5360    -1.0580     1.0210 o          1 4JC      -0.616300
      2 S            2.1640     0.0510     0.1540 sy         1 4JC       1.267200
      3 O            2.5890     1.3920     0.5340 o          1 4JC      -0.616300
      4 N            2.6650    -0.3800    -1.3610 n8         1 4JC      -0.892700
      5 C5           0.4100     0.0750    -0.0580 ca         1 4JC      -0.277500
      6 C4          -0.2710    -1.1320    -0.1650 ca         1 4JC      -0.024500
      7 C3          -1.6440    -1.1170    -0.3180 ca         1 4JC      -0.150000
      8 C6          -0.2660     1.2840    -0.0990 ca         1 4JC      -0.024500
      9 C7          -1.6440     1.2790    -0.2540 ca         1 4JC      -0.150000
     10 C2          -2.3510     0.0860    -0.3640 ca         1 4JC      -0.018300
     11 C1          -3.8480     0.0840    -0.4780 c3         1 4JC      -0.042100
     12 C           -4.5170    -0.1290     0.8790 c3         1 4JC      -0.087100
     13 H1           3.6220    -0.7210    -1.3520 hn         1 4JC       0.416800
     14 H2           2.5660     0.3700    -2.0360 hn         1 4JC       0.416800
     15 H3           0.2600    -2.0750    -0.1340 ha         1 4JC       0.154000
     16 H4          -2.1790    -2.0560    -0.4040 ha         1 4JC       0.136500
     17 H5           0.2650     2.2230    -0.0120 ha         1 4JC       0.154000
     18 H6          -2.1760     2.2220    -0.2900 ha         1 4JC       0.136500
     19 H7          -4.1860     1.0290    -0.9080 hc         1 4JC       0.050700
     20 H8          -4.1630    -0.7060    -1.1650 hc         1 4JC       0.050700
     21 H9          -4.2190    -1.0810     1.3210 hc         1 4JC       0.038700
     22 H10         -4.2480     0.6630     1.5790 hc         1 4JC       0.038700
     23 H11         -5.6020    -0.1320     0.7780 hc         1 4JC       0.038700
@<TRIPOS>BOND
     1     1     2 2   
     2     2     3 2   
     3     2     4 1   
     4     2     5 1   
     5     4    13 1   
     6     4    14 1   
     7     5     6 ar  
     8     5     8 ar  
     9     6     7 ar  
    10     6    15 1   
    11     7    10 ar  
    12     7    16 1   
    13     8     9 ar  
    14     8    17 1   
    15     9    10 ar  
    16     9    18 1   
    17    10    11 1   
    18    11    12 1   
    19    11    19 1   
    20    11    20 1   
    21    12    21 1   
    22    12    22 1   
    23    12    23 1   
@<TRIPOS>SUBSTRUCTURE
     1 4JC         1 TEMP              0 ****  ****    0 ROOT
