@<TRIPOS>MOLECULE
4JC
   23    23     1     0     0
SMALL
No Charge or Current Charge


@<TRIPOS>ATOM
      1 O1           2.6690    -1.4230     0.7880 o          1 4JC      -0.545500
      2 S            2.2670    -0.1510     0.1870 sy         1 4JC       1.125600
      3 O            2.7680     1.1410     0.6490 o          1 4JC      -0.545500
      4 N            2.7780    -0.2330    -1.3650 n8         1 4JC      -1.003100
      5 C5           0.4850    -0.0840    -0.0180 ca         1 4JC      -0.277500
      6 C4          -0.2580    -1.2780    -0.1160 ca         1 4JC      -0.006500
      7 C3          -1.6540    -1.2260    -0.2780 ca         1 4JC      -0.132000
      8 C6          -0.1790     1.1590    -0.0820 ca         1 4JC      -0.006500
      9 C7          -1.5750     1.2020    -0.2440 ca         1 4JC      -0.132000
     10 C2          -2.3200     0.0120    -0.3440 ca         1 4JC      -0.018300
     11 C1          -3.8320     0.0640    -0.5140 c3         1 4JC      -0.042100
     12 C           -4.5690     0.0740     0.8380 c3         1 4JC      -0.087100
     13 H1           3.4450     0.5340    -1.3880 hn         1 4JC       0.472000
     14 H2           1.9750     0.1270    -1.8750 hn         1 4JC       0.472000
     15 H3           0.2390    -2.2460    -0.0690 ha         1 4JC       0.136000
     16 H4          -2.2190    -2.1520    -0.3500 ha         1 4JC       0.118500
     17 H5           0.3770     2.0920    -0.0050 ha         1 4JC       0.136000
     18 H6          -2.0780     2.1650    -0.2890 ha         1 4JC       0.118500
     19 H7          -4.1190     0.9570    -1.0830 hc         1 4JC       0.050700
     20 H8          -4.1770    -0.7960    -1.1020 hc         1 4JC       0.050700
     21 H9          -4.3340    -0.8300     1.4130 hc         1 4JC       0.038700
     22 H10         -4.2750     0.9480     1.4320 hc         1 4JC       0.038700
     23 H11         -5.6540     0.1120     0.6830 hc         1 4JC       0.038700
@<TRIPOS>BOND
     1     1     2 2   
     2     2     3 2   
     3     2     4 1   
     4     2     5 1   
     5     4    13 1   
     6     4    14 1   
     7     5     6 ar  
     8     5     8 ar  
     9     6     7 ar  
    10     6    15 1   
    11     7    10 ar  
    12     7    16 1   
    13     8     9 ar  
    14     8    17 1   
    15     9    10 ar  
    16     9    18 1   
    17    10    11 1   
    18    11    12 1   
    19    11    19 1   
    20    11    20 1   
    21    12    21 1   
    22    12    22 1   
    23    12    23 1   
@<TRIPOS>SUBSTRUCTURE
     1 4JC         1 TEMP              0 ****  ****    0 ROOT
