@<TRIPOS>MOLECULE
4JE
   26    26     1     0     0
SMALL
bcc


@<TRIPOS>ATOM
      1 C1           4.1190     0.1360     0.6640 c3         1 4JE      -0.073400
      2 C5          -0.1680     1.1360    -0.1770 ca         1 4JE      -0.024500
      3 C2           3.3840    -0.1000    -0.6580 c3         1 4JE      -0.043100
      4 C8           1.1840    -1.2840    -0.3550 ca         1 4JE      -0.150000
      5 C3           1.8950    -0.0940    -0.4790 ca         1 4JE      -0.018300
      6 O1          -2.9300     1.0760     1.1010 o          1 4JE      -0.616300
      7 O           -3.0150    -1.3730     0.6160 o          1 4JE      -0.616300
      8 N           -3.1500     0.4000    -1.2750 n8         1 4JE      -0.891700
      9 C6          -0.8520    -0.0690    -0.0580 ca         1 4JE      -0.277500
     10 C4           1.1990     1.1130    -0.3870 ca         1 4JE      -0.150000
     11 C7          -0.1880    -1.2820    -0.1430 ca         1 4JE      -0.024500
     12 C            5.6310     0.1320     0.4920 c3         1 4JE      -0.090100
     13 H1           3.7980     1.0910     1.0900 hc         1 4JE       0.044200
     14 H2           3.8260    -0.6350     1.3830 hc         1 4JE       0.044200
     15 H3          -0.6880     2.0820    -0.1090 ha         1 4JE       0.154500
     16 H4           3.6730     0.6770    -1.3710 hc         1 4JE       0.051700
     17 H5           3.7020    -1.0540    -1.0850 hc         1 4JE       0.051700
     18 H6           1.7060    -2.2300    -0.4280 ha         1 4JE       0.136500
     19 H7          -4.1070     0.7390    -1.2320 hn         1 4JE       0.416800
     20 H8          -3.0750    -0.3510    -1.9540 hn         1 4JE       0.416800
     21 H9           1.7360     2.0490    -0.4840 ha         1 4JE       0.136500
     22 H10         -0.7210    -2.2180    -0.0480 ha         1 4JE       0.154500
     23 H11          5.9490     0.8990    -0.2160 hc         1 4JE       0.034033
     24 H12          6.1370     0.3240     1.4380 hc         1 4JE       0.034033
     25 H13          5.9830    -0.8300     0.1160 hc         1 4JE       0.034033
     26 S           -2.5960    -0.0350     0.2210 sy         1 4JE       1.267200
@<TRIPOS>BOND
     1     1     3 1   
     2     1    12 1   
     3     1    13 1   
     4     1    14 1   
     5     2     9 ar  
     6     2    10 ar  
     7     2    15 1   
     8     3     5 1   
     9     3    16 1   
    10     3    17 1   
    11     4     5 ar  
    12     4    11 ar  
    13     4    18 1   
    14     5    10 ar  
    15     6    26 2   
    16     7    26 2   
    17     8    19 1   
    18     8    20 1   
    19     8    26 1   
    20     9    11 ar  
    21     9    26 1   
    22    10    21 1   
    23    11    22 1   
    24    12    23 1   
    25    12    24 1   
    26    12    25 1   
@<TRIPOS>SUBSTRUCTURE
     1 4JE         1 TEMP              0 ****  ****    0 ROOT
