@<TRIPOS>MOLECULE
4JE
   26    26     1     0     0
SMALL
No Charge or Current Charge


@<TRIPOS>ATOM
      1 C1           4.1520     0.0080     0.6510 c3         1 4JE      -0.073400
      2 C5          -0.2070     1.2920    -0.1600 ca         1 4JE      -0.006500
      3 C2           3.3660    -0.0080    -0.6770 c3         1 4JE      -0.043100
      4 C8           1.1360    -1.1720    -0.3140 ca         1 4JE      -0.132000
      5 C3           1.8610     0.0260    -0.4520 ca         1 4JE      -0.018300
      6 O1          -3.1010     1.4080     0.8520 o          1 4JE      -0.545500
      7 O           -3.1720    -1.1580     0.7360 o          1 4JE      -0.545500
      8 N           -3.2730     0.1990    -1.2870 n8         1 4JE      -1.002100
      9 C6          -0.9310     0.0900    -0.0240 ca         1 4JE      -0.277500
     10 C4           1.1820     1.2560    -0.3720 ca         1 4JE      -0.132000
     11 C7          -0.2540    -1.1450    -0.1020 ca         1 4JE      -0.006500
     12 C            5.6800    -0.0260     0.4520 c3         1 4JE      -0.090100
     13 H1           3.8850     0.9080     1.2190 hc         1 4JE       0.044200
     14 H2           3.8520    -0.8540     1.2600 hc         1 4JE       0.044200
     15 H3          -0.7150     2.2540    -0.1030 ha         1 4JE       0.136500
     16 H4           3.6740     0.8490    -1.2880 hc         1 4JE       0.051700
     17 H5           3.6410    -0.9040    -1.2480 hc         1 4JE       0.051700
     18 H6           1.6500    -2.1290    -0.3690 ha         1 4JE       0.118500
     19 H7          -3.9310    -0.5760    -1.2800 hn         1 4JE       0.472000
     20 H8          -2.4850    -0.1560    -1.8230 hn         1 4JE       0.472000
     21 H9           1.7320     2.1890    -0.4730 ha         1 4JE       0.118500
     22 H10         -0.7950    -2.0850     0.0040 ha         1 4JE       0.136500
     23 H11          6.0160     0.8440    -0.1240 hc         1 4JE       0.034033
     24 H12          6.1920    -0.0130     1.4220 hc         1 4JE       0.034033
     25 H13          5.9820    -0.9340    -0.0830 hc         1 4JE       0.034033
     26 S           -2.7050     0.1360     0.2460 sy         1 4JE       1.125600
@<TRIPOS>BOND
     1     1     3 1   
     2     1    12 1   
     3     1    13 1   
     4     1    14 1   
     5     2     9 ar  
     6     2    10 ar  
     7     2    15 1   
     8     3     5 1   
     9     3    16 1   
    10     3    17 1   
    11     4     5 ar  
    12     4    11 ar  
    13     4    18 1   
    14     5    10 ar  
    15     6    26 2   
    16     7    26 2   
    17     8    19 1   
    18     8    20 1   
    19     8    26 1   
    20     9    11 ar  
    21     9    26 1   
    22    10    21 1   
    23    11    22 1   
    24    12    23 1   
    25    12    24 1   
    26    12    25 1   
@<TRIPOS>SUBSTRUCTURE
     1 4JE         1 TEMP              0 ****  ****    0 ROOT
