@<TRIPOS>MOLECULE
4JF
  188   199     1     0     0
SMALL
No Charge or Current Charge


@<TRIPOS>ATOM
      1 C1          26.2270    27.3780    22.3660 ca         1 4JF      -0.100000
      2 C2          26.1430    27.3160    23.7620 ca         1 4JF       0.176100
      3 C3          25.4150    28.2930    24.4880 ca         1 4JF      -0.193600
      4 C4          24.7660    29.3550    23.7790 ca         1 4JF      -0.212600
      5 C5          24.8570    29.3810    22.3610 ca         1 4JF       0.166100
      6 C6          25.5810    28.4040    21.6690 ca         1 4JF      -0.117000
      7 C9          23.9930    30.4420    24.5180 c          1 4JF       0.602900
      8 C10         25.3260    28.1880    25.9960 c          1 4JF       0.643900
      9 C11         23.9340    30.3300    26.0110 cc         1 4JF      -0.010200
     10 C12         24.5570    29.2420    26.6670 cc         1 4JF      -0.335200
     11 O13         23.4640    31.3500    23.8910 o          1 4JF      -0.530100
     12 O14         25.8470    27.2620    26.6150 o          1 4JF      -0.643100
     13 O15         24.2330    30.3420    21.6260 oh         1 4JF      -0.557100
     14 O17         26.7710    26.2890    24.4010 oh         1 4JF      -0.556100
     15 C19         23.2360    31.1270    26.8950 cf         1 4JF      -0.202400
     16 C20         23.2810    30.4370    28.2990 c5         1 4JF      -0.029300
     17 C21         24.2610    29.3080    27.9720 c2         1 4JF       0.246800
     18 C22         22.9230    32.5800    26.7390 c          1 4JF       0.609300
     19 N23         24.6400    28.3260    28.8950 nu         1 4JF      -0.553000
     20 N24         24.3760    28.4010    30.3340 n8         1 4JF      -0.728000
     21 O25         25.1170    31.4800    29.4620 os         1 4JF      -0.432000
     22 C26         23.2560    33.5410    27.9170 c6         1 4JF      -0.110700
     23 C28         22.9270    32.8290    29.3160 c6         1 4JF       0.195000
     24 C29         23.6740    31.4160    29.4410 c6         1 4JF       0.183300
     25 C31         21.3410    32.6580    29.3530 c3         1 4JF      -0.112400
     26 C34         20.6860    31.5860    30.2730 c3         1 4JF      -0.089100
     27 O38         22.2490    32.9550    25.7990 o          1 4JF      -0.469100
     28 C39         24.7510    34.1340    27.8230 c6         1 4JF      -0.117700
     29 C41         25.7100    33.3190    26.9030 c          1 4JF       0.595300
     30 C42         24.7980    35.6690    27.3820 c6         1 4JF       0.219000
     31 O43         26.4940    32.5170    27.3800 o          1 4JF      -0.481100
     32 C44         25.8490    33.7410    25.4580 ce         1 4JF       0.036800
     33 C45         25.3090    34.9820    24.9320 ce         1 4JF      -0.262200
     34 C46         24.4440    35.8700    25.8360 c6         1 4JF       0.238500
     35 C48         26.2490    36.2100    27.7470 c3         1 4JF      -0.102400
     36 C51         26.7810    37.5160    27.1030 c3         1 4JF      -0.088100
     37 O55         23.0300    35.6780    25.5980 os         1 4JF      -0.432000
     38 C56         25.7110    35.2010    23.6620 c2         1 4JF       0.271800
     39 C57         26.6350    34.0690    23.2420 c5         1 4JF      -0.104300
     40 C58         26.5900    33.1340    24.4850 cf         1 4JF      -0.280400
     41 C59         26.2200    33.2280    22.0230 c          1 4JF       0.634300
     42 C60         27.2810    31.8120    24.3960 c          1 4JF       0.613300
     43 O61         25.2590    33.4000    21.2850 o          1 4JF      -0.620100
     44 O62         27.1320    30.9100    25.2060 o          1 4JF      -0.542100
     45 C63         28.3720    30.4260    20.3220 c6         1 4JF      -0.002000
     46 C64         28.8130    29.7030    21.5890 c2         1 4JF      -0.316200
     47 C65         28.6470    30.2190    22.8100 c2         1 4JF       0.120900
     48 C66         28.0410    31.6120    23.0490 c6         1 4JF      -0.076300
     49 C67         27.2140    32.1160    21.8100 ce         1 4JF      -0.404400
     50 C68         27.3800    31.5500    20.5970 c2         1 4JF       0.265900
     51 O71         29.0280    29.5400    23.9010 oh         1 4JF      -0.564100
     52 O73         26.6660    31.9170    19.5260 oh         1 4JF      -0.531100
     53 N75         25.5120    36.3310    22.8580 nu         1 4JF      -0.591000
     54 N76         25.7130    37.6970    23.3560 n8         1 4JF      -0.710000
     55 C77         25.9780    30.9580    32.9670 c6         1 4JF       0.197300
     56 C78         25.7600    31.7820    30.6990 c6         1 4JF       0.411300
     57 C79         27.2840    31.7930    30.5010 c6         1 4JF      -0.107400
     58 C80         28.0000    32.0170    31.8500 c6         1 4JF       0.149300
     59 C81         27.5440    30.9500    32.9110 c6         1 4JF       0.134500
     60 O88         25.4200    30.7580    31.6510 os         1 4JF      -0.537000
     61 C89         25.3950    29.8350    33.8570 c3         1 4JF      -0.087100
     62 N93         28.1680    31.1160    34.2790 n3         1 4JF      -0.763600
     63 O94         29.4150    31.9950    31.6420 oh         1 4JF      -0.645000
     64 C96         27.9590    32.4320    34.9350 c3         1 4JF       0.173600
     65 C0A         29.5490    30.5960    34.4290 c3         1 4JF       0.173600
     66 C4A         22.5330    36.0510    24.2990 c6         1 4JF       0.416300
     67 C5A         21.1940    36.8020    24.4450 c6         1 4JF      -0.157400
     68 C6A         20.6220    37.1020    23.0480 c6         1 4JF       0.178300
     69 C7A         20.4560    35.7960    22.2160 c6         1 4JF       0.183500
     70 C8A         21.8530    35.0760    22.1700 c6         1 4JF       0.158300
     71 O5B         22.3360    34.8600    23.5150 os         1 4JF      -0.463000
     72 O6B         19.3630    37.7690    23.1430 oh         1 4JF      -0.632000
     73 N8B         19.7870    36.1010    20.8950 n3         1 4JF      -0.758600
     74 C9B         20.6160    36.8560    19.9230 c3         1 4JF       0.185100
     75 C3C         19.0720    34.9610    20.2750 c3         1 4JF       0.185100
     76 C7C         21.8270    33.6760    21.5070 c3         1 4JF      -0.091100
     77 O1D         23.8480    36.3800    28.2320 os         1 4JF      -0.488000
     78 O2D         23.2880    33.7580    30.4160 os         1 4JF      -0.499000
     79 C3D         22.9750    33.4010    31.7980 c6         1 4JF       0.398300
     80 C4D         23.9360    34.0470    32.8440 c6         1 4JF      -0.133400
     81 C6D         23.6200    35.5250    33.1800 c6         1 4JF       0.138300
     82 C9D         21.3110    35.1410    32.2730 c6         1 4JF       0.140300
     83 C0E         22.1060    35.6970    33.4900 c6         1 4JF       0.154300
     84 O4E         21.6090    33.7390    32.1230 os         1 4JF      -0.478000
     85 C5E         19.7740    35.2410    32.4350 c3         1 4JF      -0.087100
     86 O9E         21.7700    37.0660    33.8110 oh         1 4JF      -0.716000
     87 O1F         24.4320    36.0040    34.2800 os         1 4JF      -0.437000
     88 C2F         25.8520    36.1060    34.0670 c3         1 4JF       0.145900
     89 C6F         23.6350    37.7930    28.0300 c6         1 4JF       0.402300
     90 C7F         22.1250    38.0920    27.9020 c6         1 4JF      -0.135400
     91 C9F         21.3950    37.8860    29.2450 c6         1 4JF       0.171300
     92 C2G         23.5980    38.2750    30.4080 c6         1 4JF       0.143300
     93 C3G         22.1020    38.6970    30.3610 c6         1 4JF       0.142300
     94 O7G         24.2120    38.5280    29.1270 os         1 4JF      -0.477000
     95 O8G         21.4200    38.5070    31.6140 oh         1 4JF      -0.723000
     96 O0H         19.9960    38.2560    29.1780 os         1 4JF      -0.446000
     97 C1H         19.1470    37.4740    28.3170 c3         1 4JF       0.146900
     98 C5H         24.4270    39.0480    31.4630 c3         1 4JF      -0.094100
     99 H7          26.7900    26.6230    21.8230 ha         1 4JF       0.131000
    100 H8          25.6420    28.4430    20.5840 ha         1 4JF       0.131000
    101 H16         23.8070    30.9600    22.2730 ho         1 4JF       0.516000
    102 H18         26.5790    26.4140    25.3690 ho         1 4JF       0.521000
    103 H1          22.3090    30.0060    28.5480 hc         1 4JF       0.093700
    104 H2          25.2330    27.5730    28.4860 hn         1 4JF       0.563000
    105 H3          24.7860    29.2430    30.7880 hn         1 4JF       0.425500
    106 H4          23.3800    28.3320    30.5940 hn         1 4JF       0.425500
    107 H27         22.5510    34.3730    27.8060 hc         1 4JF       0.096700
    108 H30         23.3500    30.9370    30.3730 h1         1 4JF       0.053700
    109 H33         20.9010    33.6300    29.6080 hc         1 4JF       0.056200
    110 H32         20.9440    32.4550    28.3520 hc         1 4JF       0.056200
    111 H37         19.6750    31.9070    30.5530 hc         1 4JF       0.036033
    112 H35         20.5810    30.6280    29.7540 hc         1 4JF       0.036033
    113 H36         21.2440    31.4030    31.1950 hc         1 4JF       0.036033
    114 H40         25.1910    34.0690    28.8250 hc         1 4JF       0.096700
    115 H47         24.6610    36.9120    25.5780 h1         1 4JF       0.058700
    116 H50         27.0040    35.4510    27.5130 hc         1 4JF       0.051200
    117 H49         26.3110    36.3320    28.8360 hc         1 4JF       0.051200
    118 H53         27.8030    37.7050    27.4510 hc         1 4JF       0.036700
    119 H52         26.8230    37.4320    26.0110 hc         1 4JF       0.036700
    120 H54         26.1870    38.3940    27.3680 hc         1 4JF       0.036700
    121 H5          27.6710    34.3950    23.1100 hc         1 4JF       0.105700
    122 H69         27.9130    29.7010    19.6360 hc         1 4JF       0.075200
    123 H6          29.2500    30.8320    19.8020 hc         1 4JF       0.075200
    124 H70         29.2550    28.7140    21.4620 ha         1 4JF       0.204000
    125 H9          28.8660    32.3340    23.1090 hc         1 4JF       0.079700
    126 H72         28.5140    29.9130    24.6590 ho         1 4JF       0.508000
    127 H74         25.9720    32.5230    19.8860 ho         1 4JF       0.531000
    128 H10         25.4830    36.1460    21.8400 hn         1 4JF       0.507000
    129 H11         26.5800    38.1480    23.0210 hn         1 4JF       0.408500
    130 H12         24.9260    38.3380    23.1740 hn         1 4JF       0.408500
    131 H82         25.6240    31.9210    33.3550 h1         1 4JF       0.032700
    132 H87         25.4400    32.7650    31.0440 h2         1 4JF       0.029700
    133 H84         27.6020    30.8450    30.0480 hc         1 4JF       0.091700
    134 H83         27.5590    32.5920    29.8020 hc         1 4JF       0.091700
    135 H85         27.7060    33.0110    32.2180 h1         1 4JF       0.024700
    136 H86         27.8230    29.9610    32.5150 h1         1 4JF       0.082700
    137 H92         25.7020    29.9580    34.9020 hc         1 4JF       0.049700
    138 H91         24.2990    29.8450    33.8320 hc         1 4JF       0.049700
    139 H90         25.7320    28.8470    33.5210 hc         1 4JF       0.049700
    140 H95         29.8070    31.9860    32.5400 ho         1 4JF       0.442000
    141 H97         28.3080    32.4020    35.9750 h1         1 4JF       0.029700
    142 H98         28.5120    33.2250    34.4150 h1         1 4JF       0.029700
    143 H99         26.8960    32.7060    34.9520 h1         1 4JF       0.029700
    144 H2A         29.7990    30.4870    35.4920 h1         1 4JF       0.029700
    145 H1A         29.6470    29.6090    33.9590 h1         1 4JF       0.029700
    146 H3A         30.2880    31.2730    33.9820 h1         1 4JF       0.029700
    147 H1B         23.2410    36.7210    23.7980 h2         1 4JF       0.006700
    148 H0B         21.3570    37.7490    24.9720 hc         1 4JF       0.070200
    149 H9A         20.4890    36.2050    25.0370 hc         1 4JF       0.070200
    150 H4B         21.3380    37.7580    22.5310 h1         1 4JF       0.016700
    151 H2B         19.7900    35.1430    22.8010 h1         1 4JF       0.086700
    152 H3B         22.5870    35.7000    21.6410 h1         1 4JF       0.008700
    153 H7B         18.9290    37.5500    22.2850 ho         1 4JF       0.433000
    154 H0C         21.0150    37.7760    20.3670 h1         1 4JF       0.025200
    155 H2C         21.4590    36.2460    19.5720 h1         1 4JF       0.025200
    156 H1C         20.0170    37.1410    19.0490 h1         1 4JF       0.025200
    157 H5C         18.4000    35.3200    19.4840 h1         1 4JF       0.025200
    158 H6C         19.7650    34.2450    19.8200 h1         1 4JF       0.025200
    159 H4C         18.4610    34.4330    21.0180 h1         1 4JF       0.025200
    160 H9C         22.7150    33.0960    21.7760 hc         1 4JF       0.049700
    161 H0D         20.9500    33.0980    21.8220 hc         1 4JF       0.049700
    162 H8C         21.8160    33.7560    20.4150 hc         1 4JF       0.049700
    163 H5D         23.0980    32.3150    31.9090 h2         1 4JF       0.073700
    164 H7D         23.8820    33.4570    33.7680 hc         1 4JF       0.064700
    165 H8D         24.9710    33.9860    32.5000 hc         1 4JF       0.064700
    166 H1E         23.8620    36.1300    32.3000 h1         1 4JF       0.045700
    167 H2E         21.6060    35.6660    31.3550 h1         1 4JF       0.042700
    168 H3E         21.8730    35.0580    34.3560 h1         1 4JF       0.083700
    169 H7E         19.4460    36.2850    32.4880 hc         1 4JF       0.049033
    170 H8E         19.2620    34.7790    31.5830 hc         1 4JF       0.049033
    171 H6E         19.4370    34.7360    33.3480 hc         1 4JF       0.049033
    172 H0F         21.7350    37.5780    32.9510 ho         1 4JF       0.522000
    173 H4F         26.3320    36.5820    34.9320 h1         1 4JF       0.027367
    174 H3F         26.3070    35.1160    33.9360 h1         1 4JF       0.027367
    175 H5F         26.0710    36.7130    33.1790 h1         1 4JF       0.027367
    176 H8F         24.1080    38.1230    27.0960 h2         1 4JF       0.072700
    177 H1G         21.9800    39.1190    27.5410 hc         1 4JF       0.069700
    178 H0G         21.7000    37.4190    27.1530 hc         1 4JF       0.069700
    179 H4G         21.4530    36.8190    29.5060 h1         1 4JF       0.056700
    180 H5G         23.6690    37.2010    30.6150 h1         1 4JF       0.052700
    181 H6G         22.0640    39.7620    30.0850 h1         1 4JF       0.054700
    182 H9G         20.4870    38.7780    31.4300 ho         1 4JF       0.517000
    183 H3H         18.1020    37.7870    28.4310 h1         1 4JF       0.030700
    184 H2H         19.4230    37.6040    27.2630 h1         1 4JF       0.030700
    185 H4H         19.2140    36.4080    28.5680 h1         1 4JF       0.030700
    186 H6H         24.0620    38.8470    32.4770 hc         1 4JF       0.047367
    187 H7H         25.4810    38.7490    31.4280 hc         1 4JF       0.047367
    188 H8H         24.3750    40.1300    31.2960 hc         1 4JF       0.047367
@<TRIPOS>BOND
     1     1     2 ar  
     2     1     6 ar  
     3     1    99 1   
     4     2     3 ar  
     5     2    14 1   
     6     3     4 ar  
     7     3     8 1   
     8     4     5 ar  
     9     4     7 1   
    10     5     6 ar  
    11     5    13 1   
    12     6   100 1   
    13     7     9 1   
    14     7    11 2   
    15     8    10 1   
    16     8    12 2   
    17     9    10 1   
    18     9    15 2   
    19    10    17 2   
    20    13   101 1   
    21    14   102 1   
    22    15    16 1   
    23    15    18 1   
    24    16    17 1   
    25    16    24 1   
    26    16   103 1   
    27    17    19 1   
    28    18    22 1   
    29    18    27 2   
    30    19    20 1   
    31    19   104 1   
    32    20   105 1   
    33    20   106 1   
    34    21    24 1   
    35    21    56 1   
    36    22    23 1   
    37    22    28 1   
    38    22   107 1   
    39    23    24 1   
    40    23    25 1   
    41    23    78 1   
    42    24   108 1   
    43    25    26 1   
    44    25   109 1   
    45    25   110 1   
    46    26   111 1   
    47    26   112 1   
    48    26   113 1   
    49    28    29 1   
    50    28    30 1   
    51    28   114 1   
    52    29    31 2   
    53    29    32 1   
    54    30    34 1   
    55    30    35 1   
    56    30    77 1   
    57    32    33 1   
    58    32    40 2   
    59    33    34 1   
    60    33    38 2   
    61    34    37 1   
    62    34   115 1   
    63    35    36 1   
    64    35   116 1   
    65    35   117 1   
    66    36   118 1   
    67    36   119 1   
    68    36   120 1   
    69    37    66 1   
    70    38    39 1   
    71    38    53 1   
    72    39    40 1   
    73    39    41 1   
    74    39   121 1   
    75    40    42 1   
    76    41    43 2   
    77    41    49 1   
    78    42    44 2   
    79    42    48 1   
    80    45    46 1   
    81    45    50 1   
    82    45   122 1   
    83    45   123 1   
    84    46    47 2   
    85    46   124 1   
    86    47    48 1   
    87    47    51 1   
    88    48    49 1   
    89    48   125 1   
    90    49    50 2   
    91    50    52 1   
    92    51   126 1   
    93    52   127 1   
    94    53    54 1   
    95    53   128 1   
    96    54   129 1   
    97    54   130 1   
    98    55    59 1   
    99    55    60 1   
   100    55    61 1   
   101    55   131 1   
   102    56    57 1   
   103    56    60 1   
   104    56   132 1   
   105    57    58 1   
   106    57   133 1   
   107    57   134 1   
   108    58    59 1   
   109    58    63 1   
   110    58   135 1   
   111    59    62 1   
   112    59   136 1   
   113    61   137 1   
   114    61   138 1   
   115    61   139 1   
   116    62    64 1   
   117    62    65 1   
   118    63   140 1   
   119    64   141 1   
   120    64   142 1   
   121    64   143 1   
   122    65   144 1   
   123    65   145 1   
   124    65   146 1   
   125    66    67 1   
   126    66    71 1   
   127    66   147 1   
   128    67    68 1   
   129    67   148 1   
   130    67   149 1   
   131    68    69 1   
   132    68    72 1   
   133    68   150 1   
   134    69    70 1   
   135    69    73 1   
   136    69   151 1   
   137    70    71 1   
   138    70    76 1   
   139    70   152 1   
   140    72   153 1   
   141    73    74 1   
   142    73    75 1   
   143    74   154 1   
   144    74   155 1   
   145    74   156 1   
   146    75   157 1   
   147    75   158 1   
   148    75   159 1   
   149    76   160 1   
   150    76   161 1   
   151    76   162 1   
   152    77    89 1   
   153    78    79 1   
   154    79    80 1   
   155    79    84 1   
   156    79   163 1   
   157    80    81 1   
   158    80   164 1   
   159    80   165 1   
   160    81    83 1   
   161    81    87 1   
   162    81   166 1   
   163    82    83 1   
   164    82    84 1   
   165    82    85 1   
   166    82   167 1   
   167    83    86 1   
   168    83   168 1   
   169    85   169 1   
   170    85   170 1   
   171    85   171 1   
   172    86   172 1   
   173    87    88 1   
   174    88   173 1   
   175    88   174 1   
   176    88   175 1   
   177    89    90 1   
   178    89    94 1   
   179    89   176 1   
   180    90    91 1   
   181    90   177 1   
   182    90   178 1   
   183    91    93 1   
   184    91    96 1   
   185    91   179 1   
   186    92    93 1   
   187    92    94 1   
   188    92    98 1   
   189    92   180 1   
   190    93    95 1   
   191    93   181 1   
   192    95   182 1   
   193    96    97 1   
   194    97   183 1   
   195    97   184 1   
   196    97   185 1   
   197    98   186 1   
   198    98   187 1   
   199    98   188 1   
@<TRIPOS>SUBSTRUCTURE
     1 4JF         1 TEMP              0 ****  ****    0 ROOT
