@<TRIPOS>MOLECULE
4JF
  188   199     1     0     0
SMALL
bcc


@<TRIPOS>ATOM
      1 C1          25.8630    27.8470    22.4280 ca         1 4JF      -0.118000
      2 C2          25.7490    27.6760    23.8180 ca         1 4JF       0.176100
      3 C3          25.2080    28.7040    24.5880 ca         1 4JF      -0.193600
      4 C4          24.8230    29.9250    23.9640 ca         1 4JF      -0.212600
      5 C5          24.9620    30.0760    22.5790 ca         1 4JF       0.166100
      6 C6          25.4720    29.0110    21.8230 ca         1 4JF      -0.135000
      7 C9          24.2510    31.0300    24.7320 c          1 4JF       0.602900
      8 C10         25.0060    28.4830    26.0300 c          1 4JF       0.643900
      9 C11         23.9610    30.7650    26.1430 cc         1 4JF      -0.010200
     10 C12         24.3430    29.5080    26.7430 cc         1 4JF      -0.335200
     11 O13         23.9880    32.1130    24.2120 o          1 4JF      -0.530100
     12 O14         25.3700    27.4150    26.5700 o          1 4JF      -0.643100
     13 O15         24.6130    31.1820    21.9260 oh         1 4JF      -0.518100
     14 O17         26.1550    26.5150    24.3360 oh         1 4JF      -0.517100
     15 C19         23.3240    31.5400    27.0410 cf         1 4JF      -0.202400
     16 C20         23.1570    30.7830    28.3290 c5         1 4JF      -0.029300
     17 C21         23.9030    29.4950    28.0630 c2         1 4JF       0.246800
     18 C22         22.7130    32.8770    26.9850 c          1 4JF       0.609300
     19 N23         24.0230    28.4970    28.9160 nu         1 4JF      -0.497800
     20 N24         23.4870    28.4280    30.1910 n8         1 4JF      -0.617600
     21 O25         25.0250    31.6290    29.3880 os         1 4JF      -0.385600
     22 C26         23.0870    33.8110    28.1350 c6         1 4JF      -0.110700
     23 C28         22.9410    33.0140    29.4960 c6         1 4JF       0.171800
     24 C29         23.6260    31.6180    29.5190 c6         1 4JF       0.160100
     25 C31         21.4110    32.8400    29.7000 c3         1 4JF      -0.112400
     26 C34         20.9000    31.7910    30.6850 c3         1 4JF      -0.089100
     27 O38         21.8540    33.1340    26.1770 o          1 4JF      -0.469100
     28 C39         24.4040    34.6430    28.0020 c6         1 4JF      -0.117700
     29 C41         25.6140    33.9640    27.3950 c          1 4JF       0.595300
     30 C42         24.2880    36.0770    27.3670 c6         1 4JF       0.195800
     31 O43         26.5140    33.5480    28.0820 o          1 4JF      -0.481100
     32 C44         25.8260    34.0940    25.9280 ce         1 4JF       0.036800
     33 C45         25.3070    35.2280    25.2570 ce         1 4JF      -0.262200
     34 C46         24.2020    36.0690    25.8270 c6         1 4JF       0.215300
     35 C48         25.5500    36.8620    27.8190 c3         1 4JF      -0.102400
     36 C51         25.9810    38.0750    27.0020 c3         1 4JF      -0.088100
     37 O55         22.9160    35.5930    25.4820 os         1 4JF      -0.385600
     38 C56         25.9510    35.3150    24.0210 c2         1 4JF       0.271800
     39 C57         26.9560    34.1990    23.9230 c5         1 4JF      -0.104300
     40 C58         26.7290    33.3920    25.1590 cf         1 4JF      -0.280400
     41 C59         27.0360    33.3630    22.6730 c          1 4JF       0.634300
     42 C60         27.2820    32.0990    25.3090 c          1 4JF       0.613300
     43 O61         26.6010    33.7850    21.5940 o          1 4JF      -0.620100
     44 O62         27.0530    31.3390    26.2580 o          1 4JF      -0.542100
     45 C63         28.7180    30.0930    21.7210 c6         1 4JF      -0.002000
     46 C64         28.8190    29.5110    23.0890 c2         1 4JF      -0.266200
     47 C65         28.5840    30.2030    24.2000 c2         1 4JF       0.120900
     48 C66         28.2310    31.6750    24.1770 c6         1 4JF      -0.076300
     49 C67         27.7070    32.1070    22.8230 ce         1 4JF      -0.404400
     50 C68         27.9440    31.3630    21.6960 c2         1 4JF       0.265900
     51 O71         28.7460    29.6380    25.4130 oh         1 4JF      -0.525100
     52 O73         27.5280    31.7220    20.5070 oh         1 4JF      -0.492100
     53 N75         25.8910    36.2220    23.0640 nu         1 4JF      -0.535800
     54 N76         25.1660    37.3930    23.1900 n8         1 4JF      -0.599600
     55 C77         26.0550    30.5780    32.6500 c6         1 4JF       0.174100
     56 C78         25.8660    31.5510    30.4950 c6         1 4JF       0.364900
     57 C79         27.2060    31.0040    30.0440 c6         1 4JF      -0.107400
     58 C80         28.1220    30.8660    31.2490 c6         1 4JF       0.126100
     59 C81         27.4520    30.0120    32.3360 c6         1 4JF       0.134500
     60 O88         25.3010    30.6920    31.4480 os         1 4JF      -0.490600
     61 C89         25.2580    29.7020    33.5890 c3         1 4JF      -0.087100
     62 N93         28.2130    29.8450    33.5620 n3         1 4JF      -0.763600
     63 O94         29.3390    30.3090    30.8030 oh         1 4JF      -0.582800
     64 C96         28.8170    31.0340    34.1150 c3         1 4JF       0.173600
     65 C0A         29.1040    28.7090    33.6050 c3         1 4JF       0.173600
     66 C4A         22.3610    36.0090    24.2860 c6         1 4JF       0.369900
     67 C5A         20.8490    35.9460    24.4010 c6         1 4JF      -0.157400
     68 C6A         20.1770    36.2140    23.0610 c6         1 4JF       0.155100
     69 C7A         20.7410    35.2710    21.9980 c6         1 4JF       0.183500
     70 C8A         22.2780    35.4100    21.9880 c6         1 4JF       0.135100
     71 O5B         22.8110    35.1450    23.2740 os         1 4JF      -0.416600
     72 O6B         18.7830    36.0250    23.1410 oh         1 4JF      -0.569800
     73 N8B         20.0850    35.4690    20.7210 n3         1 4JF      -0.758600
     74 C9B         20.4710    36.6260    19.9510 c3         1 4JF       0.185100
     75 C3C         19.8700    34.2990    19.9070 c3         1 4JF       0.185100
     76 C7C         22.9580    34.4560    21.0290 c3         1 4JF      -0.091100
     77 O1D         23.1180    36.6110    27.9500 os         1 4JF      -0.441600
     78 O2D         23.5200    33.8640    30.4670 os         1 4JF      -0.452600
     79 C3D         23.4590    33.6300    31.8520 c6         1 4JF       0.351900
     80 C4D         24.6100    34.4010    32.4840 c6         1 4JF      -0.133400
     81 C6D         24.3600    35.9070    32.4680 c6         1 4JF       0.115100
     82 C9D         21.9370    35.3940    32.4370 c6         1 4JF       0.117100
     83 C0E         23.0350    36.1750    33.1740 c6         1 4JF       0.131100
     84 O4E         22.2400    34.0060    32.4190 os         1 4JF      -0.431600
     85 C5E         20.5700    35.5410    33.0720 c3         1 4JF      -0.087100
     86 O9E         22.7370    37.5370    33.2980 oh         1 4JF      -0.593800
     87 O1F         25.3860    36.6100    33.1210 os         1 4JF      -0.390600
     88 C2F         26.5290    36.8150    32.3280 c3         1 4JF       0.122700
     89 C6F         22.5810    37.8440    27.5670 c6         1 4JF       0.355900
     90 C7F         21.0810    37.7810    27.8130 c6         1 4JF      -0.135400
     91 C9F         20.7590    37.7600    29.3030 c6         1 4JF       0.148100
     92 C2G         22.9250    38.9430    29.6610 c6         1 4JF       0.120100
     93 C3G         21.4180    38.9590    29.9590 c6         1 4JF       0.119100
     94 O7G         23.1530    38.9160    28.2620 os         1 4JF      -0.430600
     95 O8G         21.1840    38.9010    31.3510 oh         1 4JF      -0.600800
     96 O0H         19.3750    37.8140    29.5420 os         1 4JF      -0.399600
     97 C1H         18.7200    36.5800    29.3870 c3         1 4JF       0.123700
     98 C5H         23.6460    40.1590    30.2050 c3         1 4JF      -0.094100
     99 H7          26.2690    27.0380    21.8330 ha         1 4JF       0.149000
    100 H8          25.5640    29.1250    20.7500 ha         1 4JF       0.149000
    101 H16         24.3090    31.8370    22.5950 ho         1 4JF       0.477000
    102 H18         25.9790    26.5660    25.3090 ho         1 4JF       0.482000
    103 H1          22.0950    30.5220    28.4450 hc         1 4JF       0.093700
    104 H2          24.4810    27.6550    28.5920 hn         1 4JF       0.507800
    105 H3          23.9870    29.0560    30.8090 hn         1 4JF       0.370300
    106 H4          22.5050    28.6770    30.1780 hn         1 4JF       0.370300
    107 H27         22.2950    34.5620    28.1740 hc         1 4JF       0.096700
    108 H30         23.3190    31.1250    30.4420 h1         1 4JF       0.053700
    109 H33         21.0160    33.8230    29.9680 hc         1 4JF       0.056200
    110 H32         20.9500    32.6140    28.7350 hc         1 4JF       0.056200
    111 H37         19.8250    31.9240    30.8080 hc         1 4JF       0.036033
    112 H35         21.0460    30.7730    30.3230 hc         1 4JF       0.036033
    113 H36         21.3450    31.8580    31.6740 hc         1 4JF       0.036033
    114 H40         24.6940    34.8410    29.0340 hc         1 4JF       0.096700
    115 H47         24.3120    37.0900    25.4570 h1         1 4JF       0.058700
    116 H50         26.4120    36.1940    27.8600 hc         1 4JF       0.051200
    117 H49         25.3770    37.1580    28.8570 hc         1 4JF       0.051200
    118 H53         26.7940    38.5810    27.5240 hc         1 4JF       0.036700
    119 H52         26.3660    37.7890    26.0230 hc         1 4JF       0.036700
    120 H54         25.1900    38.8070    26.8570 hc         1 4JF       0.036700
    121 H5          27.9450    34.6830    24.0120 hc         1 4JF       0.105700
    122 H69         28.2460    29.3840    21.0350 hc         1 4JF       0.075200
    123 H6          29.7080    30.2940    21.2890 hc         1 4JF       0.075200
    124 H70         29.1040    28.4690    23.1660 ha         1 4JF       0.154000
    125 H9          29.1640    32.2250    24.3910 hc         1 4JF       0.079700
    126 H72         28.1340    30.1190    26.0190 ho         1 4JF       0.469000
    127 H74         27.0450    32.5880    20.6080 ho         1 4JF       0.492000
    128 H10         26.4170    36.0630    22.2150 hn         1 4JF       0.451800
    129 H11         25.8090    38.1750    23.1530 hn         1 4JF       0.353300
    130 H12         24.5390    37.4760    22.3990 hn         1 4JF       0.353300
    131 H82         26.1570    31.5800    33.0940 h1         1 4JF       0.032700
    132 H87         26.0060    32.5440    30.9470 h2         1 4JF       0.029700
    133 H84         27.0510    30.0260    29.5750 hc         1 4JF       0.091700
    134 H83         27.6570    31.6670    29.3060 hc         1 4JF       0.091700
    135 H85         28.2910    31.8750    31.6550 h1         1 4JF       0.024700
    136 H86         27.2970    29.0110    31.9170 h1         1 4JF       0.082700
    137 H92         25.7790    29.5960    34.5380 hc         1 4JF       0.049700
    138 H91         24.2780    30.1380    33.7870 hc         1 4JF       0.049700
    139 H90         25.1130    28.7050    33.1670 hc         1 4JF       0.049700
    140 H95         30.0260    30.5000    31.4490 ho         1 4JF       0.403000
    141 H97         29.1120    30.8450    35.1490 h1         1 4JF       0.029700
    142 H98         29.7200    31.3730    33.5830 h1         1 4JF       0.029700
    143 H99         28.1120    31.8660    34.1290 h1         1 4JF       0.029700
    144 H2A         29.3720    28.4950    34.6420 h1         1 4JF       0.029700
    145 H1A         28.6040    27.8250    33.2080 h1         1 4JF       0.029700
    146 H3A         30.0440    28.8390    33.0500 h1         1 4JF       0.029700
    147 H1B         22.6740    37.0410    24.0530 h2         1 4JF       0.006700
    148 H0B         20.5130    36.6840    25.1340 hc         1 4JF       0.070200
    149 H9A         20.5560    34.9580    24.7660 hc         1 4JF       0.070200
    150 H4B         20.4060    37.2500    22.7630 h1         1 4JF       0.016700
    151 H2B         20.5150    34.2470    22.3210 h1         1 4JF       0.086700
    152 H3B         22.5290    36.4440    21.6960 h1         1 4JF       0.008700
    153 H7B         18.4430    36.6160    23.8200 ho         1 4JF       0.394000
    154 H0C         20.5600    37.5080    20.5850 h1         1 4JF       0.025200
    155 H2C         21.4200    36.5130    19.4040 h1         1 4JF       0.025200
    156 H1C         19.7010    36.8410    19.2070 h1         1 4JF       0.025200
    157 H5C         19.0860    34.5050    19.1740 h1         1 4JF       0.025200
    158 H6C         20.7510    33.9570    19.3460 h1         1 4JF       0.025200
    159 H4C         19.5290    33.4680    20.5250 h1         1 4JF       0.025200
    160 H9C         24.0410    34.5320    21.1210 hc         1 4JF       0.049700
    161 H0D         22.6670    33.4230    21.2250 hc         1 4JF       0.049700
    162 H8C         22.7010    34.6890    19.9970 hc         1 4JF       0.049700
    163 H5D         23.5570    32.5640    32.0790 h2         1 4JF       0.073700
    164 H7D         24.7090    34.0710    33.5220 hc         1 4JF       0.064700
    165 H8D         25.5460    34.1510    31.9840 hc         1 4JF       0.064700
    166 H1E         24.2790    36.2590    31.4250 h1         1 4JF       0.045700
    167 H2E         21.8820    35.7700    31.4040 h1         1 4JF       0.042700
    168 H3E         23.1070    35.7790    34.1960 h1         1 4JF       0.083700
    169 H7E         20.2410    36.5780    33.0410 hc         1 4JF       0.049033
    170 H8E         19.8330    34.9480    32.5280 hc         1 4JF       0.049033
    171 H6E         20.5760    35.2140    34.1130 hc         1 4JF       0.049033
    172 H0F         22.3300    37.8780    32.4850 ho         1 4JF       0.423000
    173 H4F         27.2210    37.4370    32.8960 h1         1 4JF       0.027367
    174 H3F         27.0450    35.8840    32.0690 h1         1 4JF       0.027367
    175 H5F         26.2860    37.3350    31.3930 h1         1 4JF       0.027367
    176 H8F         22.7740    38.0640    26.5130 h2         1 4JF       0.072700
    177 H1G         20.6190    38.6630    27.3590 hc         1 4JF       0.069700
    178 H0G         20.6710    36.9060    27.3090 hc         1 4JF       0.069700
    179 H4G         21.1770    36.8450    29.7530 h1         1 4JF       0.056700
    180 H5G         23.3510    38.0450    30.1320 h1         1 4JF       0.052700
    181 H6G         20.9820    39.8770    29.5370 h1         1 4JF       0.054700
    182 H9G         21.2260    39.7910    31.7170 ho         1 4JF       0.418000
    183 H3H         17.6770    36.7210    29.6690 h1         1 4JF       0.030700
    184 H2H         18.7450    36.2060    28.3580 h1         1 4JF       0.030700
    185 H4H         19.1510    35.8060    30.0360 h1         1 4JF       0.030700
    186 H6H         23.5740    40.2010    31.2910 hc         1 4JF       0.047367
    187 H7H         24.7070    40.1150    29.9550 hc         1 4JF       0.047367
    188 H8H         23.2330    41.0830    29.7960 hc         1 4JF       0.047367
@<TRIPOS>BOND
     1     1     2 ar  
     2     1     6 ar  
     3     1    99 1   
     4     2     3 ar  
     5     2    14 1   
     6     3     4 ar  
     7     3     8 1   
     8     4     5 ar  
     9     4     7 1   
    10     5     6 ar  
    11     5    13 1   
    12     6   100 1   
    13     7     9 1   
    14     7    11 2   
    15     8    10 1   
    16     8    12 2   
    17     9    10 1   
    18     9    15 2   
    19    10    17 2   
    20    13   101 1   
    21    14   102 1   
    22    15    16 1   
    23    15    18 1   
    24    16    17 1   
    25    16    24 1   
    26    16   103 1   
    27    17    19 1   
    28    18    22 1   
    29    18    27 2   
    30    19    20 1   
    31    19   104 1   
    32    20   105 1   
    33    20   106 1   
    34    21    24 1   
    35    21    56 1   
    36    22    23 1   
    37    22    28 1   
    38    22   107 1   
    39    23    24 1   
    40    23    25 1   
    41    23    78 1   
    42    24   108 1   
    43    25    26 1   
    44    25   109 1   
    45    25   110 1   
    46    26   111 1   
    47    26   112 1   
    48    26   113 1   
    49    28    29 1   
    50    28    30 1   
    51    28   114 1   
    52    29    31 2   
    53    29    32 1   
    54    30    34 1   
    55    30    35 1   
    56    30    77 1   
    57    32    33 1   
    58    32    40 2   
    59    33    34 1   
    60    33    38 2   
    61    34    37 1   
    62    34   115 1   
    63    35    36 1   
    64    35   116 1   
    65    35   117 1   
    66    36   118 1   
    67    36   119 1   
    68    36   120 1   
    69    37    66 1   
    70    38    39 1   
    71    38    53 1   
    72    39    40 1   
    73    39    41 1   
    74    39   121 1   
    75    40    42 1   
    76    41    43 2   
    77    41    49 1   
    78    42    44 2   
    79    42    48 1   
    80    45    46 1   
    81    45    50 1   
    82    45   122 1   
    83    45   123 1   
    84    46    47 2   
    85    46   124 1   
    86    47    48 1   
    87    47    51 1   
    88    48    49 1   
    89    48   125 1   
    90    49    50 2   
    91    50    52 1   
    92    51   126 1   
    93    52   127 1   
    94    53    54 1   
    95    53   128 1   
    96    54   129 1   
    97    54   130 1   
    98    55    59 1   
    99    55    60 1   
   100    55    61 1   
   101    55   131 1   
   102    56    57 1   
   103    56    60 1   
   104    56   132 1   
   105    57    58 1   
   106    57   133 1   
   107    57   134 1   
   108    58    59 1   
   109    58    63 1   
   110    58   135 1   
   111    59    62 1   
   112    59   136 1   
   113    61   137 1   
   114    61   138 1   
   115    61   139 1   
   116    62    64 1   
   117    62    65 1   
   118    63   140 1   
   119    64   141 1   
   120    64   142 1   
   121    64   143 1   
   122    65   144 1   
   123    65   145 1   
   124    65   146 1   
   125    66    67 1   
   126    66    71 1   
   127    66   147 1   
   128    67    68 1   
   129    67   148 1   
   130    67   149 1   
   131    68    69 1   
   132    68    72 1   
   133    68   150 1   
   134    69    70 1   
   135    69    73 1   
   136    69   151 1   
   137    70    71 1   
   138    70    76 1   
   139    70   152 1   
   140    72   153 1   
   141    73    74 1   
   142    73    75 1   
   143    74   154 1   
   144    74   155 1   
   145    74   156 1   
   146    75   157 1   
   147    75   158 1   
   148    75   159 1   
   149    76   160 1   
   150    76   161 1   
   151    76   162 1   
   152    77    89 1   
   153    78    79 1   
   154    79    80 1   
   155    79    84 1   
   156    79   163 1   
   157    80    81 1   
   158    80   164 1   
   159    80   165 1   
   160    81    83 1   
   161    81    87 1   
   162    81   166 1   
   163    82    83 1   
   164    82    84 1   
   165    82    85 1   
   166    82   167 1   
   167    83    86 1   
   168    83   168 1   
   169    85   169 1   
   170    85   170 1   
   171    85   171 1   
   172    86   172 1   
   173    87    88 1   
   174    88   173 1   
   175    88   174 1   
   176    88   175 1   
   177    89    90 1   
   178    89    94 1   
   179    89   176 1   
   180    90    91 1   
   181    90   177 1   
   182    90   178 1   
   183    91    93 1   
   184    91    96 1   
   185    91   179 1   
   186    92    93 1   
   187    92    94 1   
   188    92    98 1   
   189    92   180 1   
   190    93    95 1   
   191    93   181 1   
   192    95   182 1   
   193    96    97 1   
   194    97   183 1   
   195    97   184 1   
   196    97   185 1   
   197    98   186 1   
   198    98   187 1   
   199    98   188 1   
@<TRIPOS>SUBSTRUCTURE
     1 4JF         1 TEMP              0 ****  ****    0 ROOT
