@<TRIPOS>MOLECULE
4JG
   34    36     1     0     0
SMALL
No Charge or Current Charge


@<TRIPOS>ATOM
      1 O3           5.3510     1.5370    -0.5150 o          1 4JG      -0.533100
      2 C1           4.8940     0.4630    -0.1510 c          1 4JG       0.620700
      3 C2           5.8440    -0.6620     0.2560 c3         1 4JG      -0.197100
      4 C4           3.4420     0.1870    -0.0830 cc         1 4JG      -0.364600
      5 C8           2.4450     1.0830    -0.4130 cd         1 4JG       0.427300
      6 C9           2.5980     2.4970    -0.9050 c3         1 4JG      -0.132400
      7 N7           1.1570     0.5910    -0.2630 nd         1 4JG      -0.744000
      8 C6           1.1960    -0.6430     0.1800 cc         1 4JG       0.735300
      9 S5           2.7690    -1.3410     0.4340 ss         1 4JG      -0.090400
     10 N10          0.0400    -1.3360     0.3780 nu         1 4JG      -0.915900
     11 C11         -1.3080    -1.0200     0.2020 ca         1 4JG       0.292000
     12 C16         -1.8210     0.2510     0.5210 ca         1 4JG      -0.122000
     13 C15         -3.1890     0.5320     0.3500 ca         1 4JG      -0.011000
     14 C20         -3.6980     1.8070     0.6650 ca         1 4JG      -0.100000
     15 C19         -5.0650     2.0820     0.4930 ca         1 4JG      -0.102000
     16 C18         -5.9280     1.0850     0.0060 ca         1 4JG      -0.112000
     17 C17         -5.4260    -0.1890    -0.3080 ca         1 4JG      -0.092000
     18 C14         -4.0570    -0.4700    -0.1370 ca         1 4JG      -0.058000
     19 C13         -3.5480    -1.7440    -0.4440 ca         1 4JG      -0.068000
     20 C12         -2.1790    -2.0160    -0.2700 ca         1 4JG      -0.151000
     21 H1           6.8980    -0.3740     0.1770 hc         1 4JG       0.062700
     22 H2           5.5930    -0.9910     1.2710 hc         1 4JG       0.062700
     23 H3           5.6240    -1.5510    -0.3440 hc         1 4JG       0.062700
     24 H4           3.1610     2.5240    -1.8440 hc         1 4JG       0.062700
     25 H5           1.6250     2.9670    -1.0890 hc         1 4JG       0.062700
     26 H6           3.1280     3.1110    -0.1690 hc         1 4JG       0.062700
     27 H7           0.2310    -2.3280     0.4770 hn         1 4JG       0.506000
     28 H8          -1.1590     1.0170     0.9110 ha         1 4JG       0.156000
     29 H9          -3.0360     2.5840     1.0420 ha         1 4JG       0.118000
     30 H10         -5.4560     3.0680     0.7360 ha         1 4JG       0.113000
     31 H11         -6.9870     1.3000    -0.1270 ha         1 4JG       0.114000
     32 H12         -6.1010    -0.9560    -0.6830 ha         1 4JG       0.112000
     33 H13         -4.2080    -2.5240    -0.8160 ha         1 4JG       0.116000
     34 H14         -1.7980    -3.0040    -0.5100 ha         1 4JG       0.109000
@<TRIPOS>BOND
     1     1     2 2   
     2     2     3 1   
     3     2     4 1   
     4     3    21 1   
     5     3    22 1   
     6     3    23 1   
     7     4     5 2   
     8     4     9 1   
     9     5     6 1   
    10     5     7 1   
    11     6    24 1   
    12     6    25 1   
    13     6    26 1   
    14     7     8 2   
    15     8     9 1   
    16     8    10 1   
    17    10    11 1   
    18    10    27 1   
    19    11    12 ar  
    20    11    20 ar  
    21    12    13 ar  
    22    12    28 1   
    23    13    14 ar  
    24    13    18 ar  
    25    14    15 ar  
    26    14    29 1   
    27    15    16 ar  
    28    15    30 1   
    29    16    17 ar  
    30    16    31 1   
    31    17    18 ar  
    32    17    32 1   
    33    18    19 ar  
    34    19    20 ar  
    35    19    33 1   
    36    20    34 1   
@<TRIPOS>SUBSTRUCTURE
     1 4JG         1 TEMP              0 ****  ****    0 ROOT
