@<TRIPOS>MOLECULE
4JG
   34    36     1     0     0
SMALL
abcg2


@<TRIPOS>ATOM
      1 O3           5.3290     1.5860    -0.1600 o          1 4JG      -0.533100
      2 C1           4.8650     0.4600    -0.1080 c          1 4JG       0.620700
      3 C2           5.7480    -0.7590    -0.0650 c3         1 4JG      -0.197100
      4 C4           3.4260     0.2410    -0.0840 cc         1 4JG      -0.364600
      5 C8           2.4190     1.1780    -0.1190 cd         1 4JG       0.427300
      6 C9           2.5930     2.6570    -0.1900 c3         1 4JG      -0.132400
      7 N7           1.1590     0.6790    -0.0840 nd         1 4JG      -0.744000
      8 C6           1.1530    -0.6240    -0.0250 cc         1 4JG       0.735300
      9 S5           2.7250    -1.3550    -0.0040 ss         1 4JG      -0.090400
     10 N10          0.0540    -1.4030     0.0190 nu         1 4JG      -0.915900
     11 C11         -1.2890    -1.0260     0.0210 ca         1 4JG       0.292000
     12 C16         -1.7440     0.2710     0.0110 ca         1 4JG      -0.122000
     13 C15         -3.1330     0.5370     0.0210 ca         1 4JG      -0.011000
     14 C20         -3.6230     1.8650     0.0150 ca         1 4JG      -0.100000
     15 C19         -4.9690     2.1140     0.0300 ca         1 4JG      -0.102000
     16 C18         -5.8940     1.0480     0.0490 ca         1 4JG      -0.112000
     17 C17         -5.4480    -0.2460     0.0510 ca         1 4JG      -0.092000
     18 C14         -4.0640    -0.5310     0.0390 ca         1 4JG      -0.058000
     19 C13         -3.5630    -1.8540     0.0480 ca         1 4JG      -0.068000
     20 C12         -2.2230    -2.0970     0.0400 ca         1 4JG      -0.151000
     21 H1           6.7970    -0.4720    -0.0790 hc         1 4JG       0.062700
     22 H2           5.5600    -1.3460     0.8370 hc         1 4JG       0.062700
     23 H3           5.5540    -1.4120    -0.9190 hc         1 4JG       0.062700
     24 H4           3.1420     2.9510    -1.0840 hc         1 4JG       0.062700
     25 H5           1.6180     3.1390    -0.2080 hc         1 4JG       0.062700
     26 H6           3.1520     3.0330     0.6660 hc         1 4JG       0.062700
     27 H7           0.2140    -2.3980     0.0530 hn         1 4JG       0.506000
     28 H8          -1.0520     1.0980    -0.0030 ha         1 4JG       0.156000
     29 H9          -2.9150     2.6850     0.0010 ha         1 4JG       0.118000
     30 H10         -5.3300     3.1340     0.0280 ha         1 4JG       0.113000
     31 H11         -6.9550     1.2570     0.0590 ha         1 4JG       0.114000
     32 H12         -6.1530    -1.0680     0.0630 ha         1 4JG       0.112000
     33 H13         -4.2590    -2.6840     0.0620 ha         1 4JG       0.116000
     34 H14         -1.8600    -3.1190     0.0470 ha         1 4JG       0.109000
@<TRIPOS>BOND
     1     1     2 2   
     2     2     3 1   
     3     2     4 1   
     4     3    21 1   
     5     3    22 1   
     6     3    23 1   
     7     4     5 2   
     8     4     9 1   
     9     5     6 1   
    10     5     7 1   
    11     6    24 1   
    12     6    25 1   
    13     6    26 1   
    14     7     8 2   
    15     8     9 1   
    16     8    10 1   
    17    10    11 1   
    18    10    27 1   
    19    11    12 ar  
    20    11    20 ar  
    21    12    13 ar  
    22    12    28 1   
    23    13    14 ar  
    24    13    18 ar  
    25    14    15 ar  
    26    14    29 1   
    27    15    16 ar  
    28    15    30 1   
    29    16    17 ar  
    30    16    31 1   
    31    17    18 ar  
    32    17    32 1   
    33    18    19 ar  
    34    19    20 ar  
    35    19    33 1   
    36    20    34 1   
@<TRIPOS>SUBSTRUCTURE
     1 4JG         1 TEMP              0 ****  ****    0 ROOT
