@<TRIPOS>MOLECULE
4JH
   17    17     1     0     0
SMALL
No Charge or Current Charge


@<TRIPOS>ATOM
      1 C1          -1.9380    -0.0120    -0.2940 ca         1 4JH      -0.086300
      2 C2          -2.1440    -1.3840    -0.0410 ca         1 4JH      -0.074000
      3 C3          -1.0510    -2.2300     0.2210 ca         1 4JH      -0.115000
      4 C4           0.2550    -1.7110     0.2330 ca         1 4JH      -0.084000
      5 C5           0.4640    -0.3450    -0.0180 ca         1 4JH      -0.018900
      6 C6          -0.6260     0.5030    -0.2810 ca         1 4JH      -0.087000
      7 Br           2.2400     0.3650    -0.0030 br         1 4JH      -0.106100
      8 C           -3.1210     0.9010    -0.5840 c3         1 4JH       0.196100
      9 N           -3.7630     1.3650     0.6600 n8         1 4JH      -1.000200
     10 H1          -3.1530    -1.7920    -0.0460 ha         1 4JH       0.134000
     11 H2          -1.2170    -3.2880     0.4160 ha         1 4JH       0.117000
     12 H3           1.1000    -2.3650     0.4360 ha         1 4JH       0.128000
     13 H4          -0.4520     1.5590    -0.4740 ha         1 4JH       0.124000
     14 H5          -2.7850     1.7750    -1.1590 h1         1 4JH       0.036700
     15 H6          -3.8660     0.3630    -1.1890 h1         1 4JH       0.036700
     16 H7          -3.0810     1.9180     1.1930 hn         1 4JH       0.398500
     17 H8          -4.4950     2.0450     0.4220 hn         1 4JH       0.398500
@<TRIPOS>BOND
     1     1     2 ar  
     2     1     6 ar  
     3     1     8 1   
     4     2     3 ar  
     5     2    10 1   
     6     3     4 ar  
     7     3    11 1   
     8     4     5 ar  
     9     4    12 1   
    10     5     6 ar  
    11     5     7 1   
    12     6    13 1   
    13     8     9 1   
    14     8    14 1   
    15     8    15 1   
    16     9    16 1   
    17     9    17 1   
@<TRIPOS>SUBSTRUCTURE
     1 4JH         1 TEMP              0 ****  ****    0 ROOT
