@<TRIPOS>MOLECULE
4JH
   17    17     1     0     0
SMALL
abcg2


@<TRIPOS>ATOM
      1 C1          -1.8430     0.1080    -0.2350 ca         1 4JH      -0.086300
      2 C2          -2.1160    -1.1850     0.2030 ca         1 4JH      -0.074000
      3 C3          -1.0860    -2.0910     0.4090 ca         1 4JH      -0.115000
      4 C4           0.2360    -1.7280     0.1890 ca         1 4JH      -0.084000
      5 C5           0.5000    -0.4370    -0.2420 ca         1 4JH      -0.018900
      6 C6          -0.5190     0.4810    -0.4510 ca         1 4JH      -0.087000
      7 BR           2.2920     0.0930    -0.5370 br         1 4JH      -0.106100
      8 C           -2.9510     1.0960    -0.5010 c3         1 4JH       0.196100
      9 N           -4.0290     0.9730     0.4640 n8         1 4JH      -1.000200
     10 H1          -3.1400    -1.4790     0.3880 ha         1 4JH       0.134000
     11 H2          -1.3100    -3.0940     0.7470 ha         1 4JH       0.117000
     12 H3           1.0340    -2.4390     0.3550 ha         1 4JH       0.128000
     13 H4          -0.2930     1.4890    -0.7760 ha         1 4JH       0.124000
     14 H5          -2.5160     2.1020    -0.5630 h1         1 4JH       0.036700
     15 H6          -3.3640     0.8890    -1.4930 h1         1 4JH       0.036700
     16 H7          -3.7250     1.3330     1.3590 hn         1 4JH       0.398500
     17 H8          -4.8040     1.5560     0.1750 hn         1 4JH       0.398500
@<TRIPOS>BOND
     1     1     2 ar  
     2     1     6 ar  
     3     1     8 1   
     4     2     3 ar  
     5     2    10 1   
     6     3     4 ar  
     7     3    11 1   
     8     4     5 ar  
     9     4    12 1   
    10     5     6 ar  
    11     5     7 1   
    12     6    13 1   
    13     8     9 1   
    14     8    14 1   
    15     8    15 1   
    16     9    16 1   
    17     9    17 1   
@<TRIPOS>SUBSTRUCTURE
     1 4JH         1 TEMP              0 ****  ****    0 ROOT
