@<TRIPOS>MOLECULE
4JI
   57    58     1     0     0
SMALL
bcc


@<TRIPOS>ATOM
      1 CAA         19.6780    -9.0690   -23.5250 ca         1 4JI      -0.166600
      2 CAB         20.2650   -10.2310   -24.0520 ca         1 4JI      -0.162000
      3 CAC         18.3450    -9.1010   -23.1090 ca         1 4JI      -0.022300
      4 CAD         19.5750   -11.4210   -24.1440 ca         1 4JI       0.098100
      5 CAE         17.6400   -10.2990   -23.2480 ca         1 4JI      -0.210000
      6 CAF         18.2270   -11.4560   -23.7300 ca         1 4JI       0.148100
      7 CAG         20.5350    -7.8630   -23.3940 c          1 4JI       0.590900
      8 CAH         21.5480    -7.6440   -24.4470 ce         1 4JI      -0.272200
      9 CAI         22.4990    -6.7070   -24.3110 cf         1 4JI      -0.012200
     10 CAK         23.5440    -6.3820   -25.2750 ca         1 4JI      -0.074800
     11 CAL         25.5560    -5.1650   -25.8390 ca         1 4JI      -0.187000
     12 CAM         25.5610    -5.7410   -27.1030 ca         1 4JI      -0.159000
     13 CAN         24.5630    -5.4740   -24.9170 ca         1 4JI       0.132100
     14 CAO         24.5650    -6.6390   -27.4690 ca         1 4JI       0.099100
     15 CAP         23.5690    -6.9450   -26.5500 ca         1 4JI      -0.110000
     16 CAQ         17.6090    -7.9450   -22.4890 c3         1 4JI      -0.056100
     17 CAT         16.2840   -12.7540   -23.3620 c3         1 4JI       0.115700
     18 CAU         21.4050   -12.5770   -25.0960 c3         1 4JI       0.121700
     19 CAW         25.4860    -6.9800   -29.6270 c3         1 4JI       0.125700
     20 CAY         25.4910    -4.0220   -23.2820 c3         1 4JI       0.126700
     21 CAZ         17.6710    -7.9630   -20.9560 c3         1 4JI       0.109000
     22 CBB         17.6510   -10.2780   -19.9900 c          1 4JI       0.673100
     23 CBD         19.1590   -10.2780   -19.9190 c3         1 4JI      -0.179100
     24 NBA         17.0520    -9.1300   -20.3730 ns         1 4JI      -0.576900
     25 OAJ         20.4130    -7.0900   -22.4580 o          1 4JI      -0.545100
     26 OAR         17.6080   -12.6370   -23.8470 os         1 4JI      -0.292900
     27 OAS         20.0790   -12.5770   -24.6090 os         1 4JI      -0.294900
     28 OAV         24.4820    -7.2480   -28.6710 os         1 4JI      -0.317900
     29 OAX         24.5110    -4.9590   -23.6750 os         1 4JI      -0.315900
     30 OBC         16.9940   -11.2650   -19.6820 o          1 4JI      -0.620100
     31 H1          21.3020   -10.1960   -24.3580 ha         1 4JI       0.141000
     32 H2          16.5980   -10.3100   -22.9570 ha         1 4JI       0.142000
     33 H3          21.4920    -8.2620   -25.3340 ha         1 4JI       0.135000
     34 H5          22.5030    -6.1370   -23.3890 ha         1 4JI       0.156000
     35 H7          26.3490    -4.4730   -25.5930 ha         1 4JI       0.137000
     36 H8          26.3560    -5.4690   -27.7850 ha         1 4JI       0.136000
     37 H9          22.7910    -7.6370   -26.8480 ha         1 4JI       0.149000
     38 H10         17.9880    -6.9840   -22.8330 hc         1 4JI       0.058200
     39 H11         16.5600    -7.9920   -22.7930 hc         1 4JI       0.058200
     40 H12         15.9960   -13.7930   -23.5030 h1         1 4JI       0.047367
     41 H13         16.2200   -12.5080   -22.2990 h1         1 4JI       0.047367
     42 H14         15.5880   -12.1180   -23.9150 h1         1 4JI       0.047367
     43 H15         21.6020   -13.5840   -25.4560 h1         1 4JI       0.040700
     44 H16         21.5360   -11.8740   -25.9240 h1         1 4JI       0.040700
     45 H17         22.1300   -12.3370   -24.3130 h1         1 4JI       0.040700
     46 H18         25.2420    -7.5720   -30.5060 h1         1 4JI       0.040033
     47 H19         25.5120    -5.9250   -29.9120 h1         1 4JI       0.040033
     48 H20         26.4790    -7.2720   -29.2730 h1         1 4JI       0.040033
     49 H21         25.2530    -3.7380   -22.2600 h1         1 4JI       0.042367
     50 H22         26.4970    -4.4490   -23.3030 h1         1 4JI       0.042367
     51 H23         25.4750    -3.1260   -23.9090 h1         1 4JI       0.042367
     52 H24         18.7040    -7.8900   -20.6260 h1         1 4JI       0.061700
     53 H25         17.1570    -7.0780   -20.5750 h1         1 4JI       0.061700
     54 H26         19.5030   -11.2420   -19.5540 hc         1 4JI       0.063033
     55 H27         19.6090   -10.0940   -20.8950 hc         1 4JI       0.063033
     56 H28         19.5240    -9.5010   -19.2440 hc         1 4JI       0.063033
     57 H29         16.0450    -9.1800   -20.4410 hn         1 4JI       0.302500
@<TRIPOS>BOND
     1     1     2 ar  
     2     1     3 ar  
     3     1     7 1   
     4     2     4 ar  
     5     2    31 1   
     6     3     5 ar  
     7     3    16 1   
     8     4     6 ar  
     9     4    27 1   
    10     5     6 ar  
    11     5    32 1   
    12     6    26 1   
    13     7     8 1   
    14     7    25 2   
    15     8     9 2   
    16     8    33 1   
    17     9    10 1   
    18     9    34 1   
    19    10    13 ar  
    20    10    15 ar  
    21    11    12 ar  
    22    11    13 ar  
    23    11    35 1   
    24    12    14 ar  
    25    12    36 1   
    26    13    29 1   
    27    14    15 ar  
    28    14    28 1   
    29    15    37 1   
    30    16    21 1   
    31    16    38 1   
    32    16    39 1   
    33    17    26 1   
    34    17    40 1   
    35    17    41 1   
    36    17    42 1   
    37    18    27 1   
    38    18    43 1   
    39    18    44 1   
    40    18    45 1   
    41    19    28 1   
    42    19    46 1   
    43    19    47 1   
    44    19    48 1   
    45    20    29 1   
    46    20    49 1   
    47    20    50 1   
    48    20    51 1   
    49    21    24 1   
    50    21    52 1   
    51    21    53 1   
    52    22    23 1   
    53    22    24 1   
    54    22    30 2   
    55    23    54 1   
    56    23    55 1   
    57    23    56 1   
    58    24    57 1   
@<TRIPOS>SUBSTRUCTURE
     1 4JI         1 TEMP              0 ****  ****    0 ROOT
