@<TRIPOS>MOLECULE
4JI
   57    58     1     0     0
SMALL
No Charge or Current Charge


@<TRIPOS>ATOM
      1 CAA         19.7680    -9.2150   -23.4160 ca         1 4JI      -0.166600
      2 CAB         20.2760   -10.3910   -24.0190 ca         1 4JI      -0.144000
      3 CAC         18.4080    -9.1870   -23.0020 ca         1 4JI      -0.022300
      4 CAD         19.4580   -11.5250   -24.2160 ca         1 4JI       0.098100
      5 CAE         17.5950   -10.3190   -23.2110 ca         1 4JI      -0.192000
      6 CAF         18.1090   -11.4890   -23.8070 ca         1 4JI       0.148100
      7 CAG         20.7060    -8.0390   -23.2160 c          1 4JI       0.590900
      8 CAH         21.6870    -7.7310   -24.3010 ce         1 4JI      -0.322200
      9 CAI         22.6450    -6.7570   -24.2310 cf         1 4JI      -0.062200
     10 CAK         23.6590    -6.3580   -25.2390 ca         1 4JI      -0.074800
     11 CAL         25.5120    -4.9220   -25.9540 ca         1 4JI      -0.169000
     12 CAM         25.5890    -5.6110   -27.1760 ca         1 4JI      -0.141000
     13 CAN         24.5530    -5.2870   -24.9820 ca         1 4JI       0.132100
     14 CAO         24.7050    -6.6760   -27.4380 ca         1 4JI       0.099100
     15 CAP         23.7520    -7.0400   -26.4740 ca         1 4JI      -0.092000
     16 CAQ         17.7560    -7.9560   -22.3640 c3         1 4JI      -0.056100
     17 CAT         15.9540   -12.6870   -23.5710 c3         1 4JI       0.138900
     18 CAU         21.3040   -12.8190   -25.2490 c3         1 4JI       0.144900
     19 CAW         25.6700    -7.1000   -29.6720 c3         1 4JI       0.148900
     20 CAY         25.3270    -3.5200   -23.4260 c3         1 4JI       0.149900
     21 CAZ         17.8080    -7.9460   -20.8180 c3         1 4JI       0.109000
     22 CBB         17.5810   -10.3090   -19.9000 c          1 4JI       0.606100
     23 CBD         19.0960   -10.4700   -19.7710 c3         1 4JI      -0.179100
     24 NBA         17.0730    -9.0660   -20.2110 ns         1 4JI      -0.509900
     25 OAJ         20.7100    -7.3890   -22.1790 o          1 4JI      -0.545100
     26 OAR         17.3250   -12.6140   -24.0020 os         1 4JI      -0.316100
     27 OAS         19.9440   -12.6860   -24.7970 os         1 4JI      -0.318100
     28 OAV         24.7330    -7.3910   -28.6190 os         1 4JI      -0.341100
     29 OAX         24.4630    -4.6180   -23.7730 os         1 4JI      -0.339100
     30 OBC         16.8170   -11.2310   -19.6650 o          1 4JI      -0.620100
     31 H1          21.3220   -10.4210   -24.3080 ha         1 4JI       0.123000
     32 H2          16.5570   -10.2720   -22.8970 ha         1 4JI       0.124000
     33 H3          21.5890    -8.3310   -25.2000 ha         1 4JI       0.185000
     34 H5          22.6830    -6.1810   -23.3030 ha         1 4JI       0.206000
     35 H7          26.2080    -4.1060   -25.7820 ha         1 4JI       0.119000
     36 H8          26.3380    -5.3050   -27.9010 ha         1 4JI       0.118000
     37 H9          23.0860    -7.8650   -26.7040 ha         1 4JI       0.131000
     38 H10         18.2090    -7.0330   -22.7440 hc         1 4JI       0.058200
     39 H11         16.7040    -7.8940   -22.6710 hc         1 4JI       0.058200
     40 H12         15.5320   -13.6700   -23.8120 h1         1 4JI       0.047367
     41 H13         15.8790   -12.5420   -22.4860 h1         1 4JI       0.047367
     42 H14         15.3460   -11.9240   -24.0730 h1         1 4JI       0.047367
     43 H15         21.4650   -13.8150   -25.6780 h1         1 4JI       0.040700
     44 H16         21.5310   -12.0750   -26.0230 h1         1 4JI       0.040700
     45 H17         22.0060   -12.6900   -24.4160 h1         1 4JI       0.040700
     46 H18         25.5180    -7.7850   -30.5160 h1         1 4JI       0.040033
     47 H19         25.5380    -6.0750   -30.0400 h1         1 4JI       0.040033
     48 H20         26.7020    -7.2190   -29.3200 h1         1 4JI       0.040033
     49 H21         25.0790    -3.1440   -22.4260 h1         1 4JI       0.042367
     50 H22         26.3780    -3.8380   -23.4180 h1         1 4JI       0.042367
     51 H23         25.2130    -2.6930   -24.1380 h1         1 4JI       0.042367
     52 H24         18.8500    -7.9460   -20.4770 h1         1 4JI       0.061700
     53 H25         17.3550    -7.0120   -20.4600 h1         1 4JI       0.061700
     54 H26         19.3820   -11.4740   -19.4390 hc         1 4JI       0.063033
     55 H27         19.5770   -10.2170   -20.7210 hc         1 4JI       0.063033
     56 H28         19.4840    -9.7000   -19.0950 hc         1 4JI       0.063033
     57 H29         16.0630    -9.0050   -20.1970 hn         1 4JI       0.302500
@<TRIPOS>BOND
     1     1     2 ar  
     2     1     3 ar  
     3     1     7 1   
     4     2     4 ar  
     5     2    31 1   
     6     3     5 ar  
     7     3    16 1   
     8     4     6 ar  
     9     4    27 1   
    10     5     6 ar  
    11     5    32 1   
    12     6    26 1   
    13     7     8 1   
    14     7    25 2   
    15     8     9 2   
    16     8    33 1   
    17     9    10 1   
    18     9    34 1   
    19    10    13 ar  
    20    10    15 ar  
    21    11    12 ar  
    22    11    13 ar  
    23    11    35 1   
    24    12    14 ar  
    25    12    36 1   
    26    13    29 1   
    27    14    15 ar  
    28    14    28 1   
    29    15    37 1   
    30    16    21 1   
    31    16    38 1   
    32    16    39 1   
    33    17    26 1   
    34    17    40 1   
    35    17    41 1   
    36    17    42 1   
    37    18    27 1   
    38    18    43 1   
    39    18    44 1   
    40    18    45 1   
    41    19    28 1   
    42    19    46 1   
    43    19    47 1   
    44    19    48 1   
    45    20    29 1   
    46    20    49 1   
    47    20    50 1   
    48    20    51 1   
    49    21    24 1   
    50    21    52 1   
    51    21    53 1   
    52    22    23 1   
    53    22    24 1   
    54    22    30 2   
    55    23    54 1   
    56    23    55 1   
    57    23    56 1   
    58    24    57 1   
@<TRIPOS>SUBSTRUCTURE
     1 4JI         1 TEMP              0 ****  ****    0 ROOT
