@<TRIPOS>MOLECULE
4JJ
   16    16     1     0     0
SMALL
No Charge or Current Charge


@<TRIPOS>ATOM
      1 C1           0.7570     1.6010     0.0460 ca         1 4JJ      -0.138000
      2 C2          -0.6310     1.3750     0.0250 ca         1 4JJ      -0.104000
      3 C3          -1.1280     0.0640    -0.0200 ca         1 4JJ       0.122000
      4 C4          -0.2470    -1.0280    -0.0410 ca         1 4JJ      -0.142000
      5 C5           1.1430    -0.8200    -0.0170 ca         1 4JJ       0.237000
      6 Cl          -2.8640    -0.2130    -0.0480 cl         1 4JJ      -0.213000
      7 N1           1.9730    -1.9330    -0.0200 nv         1 4JJ      -1.059000
      8 C            1.6560     0.5200     0.0210 ca         1 4JJ       0.225000
      9 N            3.0150     0.7980     0.0240 nv         1 4JJ      -1.055000
     10 H1           1.1300     2.6220     0.0770 ha         1 4JJ       0.115000
     11 H2          -1.3210     2.2160     0.0430 ha         1 4JJ       0.129000
     12 H3          -0.6480    -2.0360    -0.0720 ha         1 4JJ       0.126000
     13 H4           1.5650    -2.8580     0.1060 hn         1 4JJ       0.441500
     14 H5           2.9430    -1.8240     0.2670 hn         1 4JJ       0.441500
     15 H6           3.6640     0.0690    -0.2660 hn         1 4JJ       0.438000
     16 H7           3.3290     1.7590    -0.0990 hn         1 4JJ       0.438000
@<TRIPOS>BOND
     1     1     2 ar  
     2     1     8 ar  
     3     1    10 1   
     4     2     3 ar  
     5     2    11 1   
     6     3     4 ar  
     7     3     6 1   
     8     4     5 ar  
     9     4    12 1   
    10     5     7 1   
    11     5     8 ar  
    12     7    13 1   
    13     7    14 1   
    14     8     9 1   
    15     9    15 1   
    16     9    16 1   
@<TRIPOS>SUBSTRUCTURE
     1 4JJ         1 TEMP              0 ****  ****    0 ROOT
