@<TRIPOS>MOLECULE
4JJ
   16    16     1     0     0
SMALL
bcc


@<TRIPOS>ATOM
      1 C1           0.7500     1.5710     0.0630 ca         1 4JJ      -0.156000
      2 C2          -0.6270     1.3680     0.0410 ca         1 4JJ      -0.122000
      3 C3          -1.1000     0.0730    -0.0300 ca         1 4JJ       0.030400
      4 C4          -0.2330    -1.0110    -0.0510 ca         1 4JJ      -0.160000
      5 C5           1.1420    -0.8080    -0.0170 ca         1 4JJ       0.098600
      6 CL          -2.8150    -0.2170    -0.0780 cl         1 4JJ      -0.121400
      7 N1           2.0410    -1.8630    -0.0760 nv         1 4JJ      -0.810200
      8 C            1.6460     0.5110     0.0260 ca         1 4JJ       0.086600
      9 N            3.0230     0.6980     0.0810 nv         1 4JJ      -0.806200
     10 H1           1.1310     2.5850     0.1000 ha         1 4JJ       0.133000
     11 H2          -1.3030     2.2110     0.0640 ha         1 4JJ       0.147000
     12 H3          -0.6230    -2.0210    -0.0860 ha         1 4JJ       0.144000
     13 H4           1.6190    -2.7700     0.0570 hn         1 4JJ       0.386300
     14 H5           2.8360    -1.7600     0.5410 hn         1 4JJ       0.386300
     15 H6           3.5410     0.0910    -0.5400 hn         1 4JJ       0.382800
     16 H7           3.3060     1.6550    -0.0700 hn         1 4JJ       0.382800
@<TRIPOS>BOND
     1     1     2 ar  
     2     1     8 ar  
     3     1    10 1   
     4     2     3 ar  
     5     2    11 1   
     6     3     4 ar  
     7     3     6 1   
     8     4     5 ar  
     9     4    12 1   
    10     5     7 1   
    11     5     8 ar  
    12     7    13 1   
    13     7    14 1   
    14     8     9 1   
    15     9    15 1   
    16     9    16 1   
@<TRIPOS>SUBSTRUCTURE
     1 4JJ         1 TEMP              0 ****  ****    0 ROOT
