@<TRIPOS>MOLECULE
4JK
   27    26     1     0     0
SMALL
abcg2


@<TRIPOS>ATOM
      1 CH           4.5930    -0.5840     0.3870 c3         1 4JK       0.120300
      2 CZ           3.4500     0.3060    -0.0450 c2         1 4JK       0.613200
      3 NH           3.6840     1.4350    -0.5910 n2         1 4JK      -0.819100
      4 NE           2.2340    -0.2370     0.2290 nu         1 4JK      -0.959400
      5 CD           0.9960     0.3300    -0.2520 c3         1 4JK       0.210800
      6 CG          -0.2010    -0.4240     0.3050 c3         1 4JK      -0.089400
      7 CB          -1.5190     0.1810    -0.1600 c3         1 4JK      -0.099400
      8 CA          -2.7600    -0.5290     0.4060 c3         1 4JK       0.019500
      9 C           -4.0070     0.3130     0.0560 c          1 4JK       0.724000
     10 OA2         -4.7170    -0.0810    -0.8900 o          1 4JK      -0.729000
     11 OA1         -4.1770     1.3490     0.7300 o          1 4JK      -0.729000
     12 N           -2.9300    -1.9020    -0.0390 n8         1 4JK      -0.988200
     13 OH           5.8120     0.0850     0.2470 oh         1 4JK      -0.617000
     14 HH1C         4.4090    -0.8990     1.4230 h1         1 4JK       0.020200
     15 HH2C         4.5500    -1.4970    -0.2240 h1         1 4JK       0.020200
     16 HH           6.5100    -0.5400     0.4640 ho         1 4JK       0.430000
     17 HA           2.8240     1.9140    -0.8420 hn         1 4JK       0.375400
     18 HD1          0.9310     1.3760     0.0610 h1         1 4JK       0.037200
     19 HD2          0.9570     0.3280    -1.3490 h1         1 4JK       0.037200
     20 HNE          2.2110    -1.2110     0.4880 hn         1 4JK       0.471000
     21 HG1C        -0.1290    -1.4740     0.0010 hc         1 4JK       0.033700
     22 HG2C        -0.1570    -0.4100     1.3980 hc         1 4JK       0.033700
     23 HB1C        -1.5470     1.2320     0.1400 hc         1 4JK       0.046700
     24 HB2C        -1.5680     0.1670    -1.2550 hc         1 4JK       0.046700
     25 HB          -2.6600    -0.5340     1.4980 h1         1 4JK       0.044700
     26 HN1         -3.2250    -1.8870    -1.0080 hn         1 4JK       0.374500
     27 HN2         -2.0490    -2.3990    -0.0100 hn         1 4JK       0.374500
@<TRIPOS>BOND
     1     1     2 1   
     2     1    13 1   
     3     1    14 1   
     4     1    15 1   
     5     2     3 2   
     6     2     4 1   
     7     3    17 1   
     8     4     5 1   
     9     4    20 1   
    10     5     6 1   
    11     5    18 1   
    12     5    19 1   
    13     6     7 1   
    14     6    21 1   
    15     6    22 1   
    16     7     8 1   
    17     7    23 1   
    18     7    24 1   
    19     8     9 1   
    20     8    12 1   
    21     8    25 1   
    22     9    10 1   
    23     9    11 1   
    24    12    26 1   
    25    12    27 1   
    26    13    16 1   
@<TRIPOS>SUBSTRUCTURE
     1 4JK         1 TEMP              0 ****  ****    0 ROOT
