@<TRIPOS>MOLECULE
4JK
   27    26     1     0     0
SMALL
No Charge or Current Charge


@<TRIPOS>ATOM
      1 CH           4.7710    -0.4520     0.2340 c3         1 4JK       0.120300
      2 CZ           3.5710     0.1410    -0.5430 c2         1 4JK       0.613200
      3 NH           3.6560     0.8610    -1.5860 n2         1 4JK      -0.819100
      4 NE           2.3140    -0.1430    -0.0630 nu         1 4JK      -0.959400
      5 CD           1.0190     0.3020    -0.6000 c3         1 4JK       0.210800
      6 CG          -0.1360    -0.2540     0.2580 c3         1 4JK      -0.089400
      7 CB          -1.5310     0.1890    -0.2540 c3         1 4JK      -0.099400
      8 CA          -2.7230    -0.2870     0.6210 c3         1 4JK       0.019500
      9 C           -4.0520     0.4920     0.2360 c          1 4JK       0.724000
     10 OA2         -4.5540     0.2890    -0.8640 o          1 4JK      -0.729000
     11 OA1         -4.5640     1.2190     1.0790 o          1 4JK      -0.729000
     12 N           -2.8010    -1.7930     0.6140 n8         1 4JK      -0.988200
     13 OH           4.3960    -1.2190     1.4090 oh         1 4JK      -0.617000
     14 HH1C         5.3460    -1.0890    -0.4500 h1         1 4JK       0.020200
     15 HH2C         5.4330     0.3720     0.5320 h1         1 4JK       0.020200
     16 HH           5.2280    -1.5420     1.8190 ho         1 4JK       0.430000
     17 HA           2.6930     1.0870    -1.8550 hn         1 4JK       0.375400
     18 HD1          0.9700     1.4000    -0.6010 h1         1 4JK       0.037200
     19 HD2          0.8990    -0.0470    -1.6350 h1         1 4JK       0.037200
     20 HNE          2.3240    -0.7170     0.7810 hn         1 4JK       0.471000
     21 HG1C        -0.0760    -1.3490     0.2650 hc         1 4JK       0.033700
     22 HG2C        -0.0110     0.0860     1.2940 hc         1 4JK       0.033700
     23 HB1C        -1.5500     1.2860    -0.2900 hc         1 4JK       0.046700
     24 HB2C        -1.6710    -0.1570    -1.2860 hc         1 4JK       0.046700
     25 HB          -2.4930     0.0080     1.6540 h1         1 4JK       0.044700
     26 HN1         -3.0880    -2.1010    -0.3230 hn         1 4JK       0.374500
     27 HN2         -1.8560    -2.1760     0.7230 hn         1 4JK       0.374500
@<TRIPOS>BOND
     1     1     2 1   
     2     1    13 1   
     3     1    14 1   
     4     1    15 1   
     5     2     3 2   
     6     2     4 1   
     7     3    17 1   
     8     4     5 1   
     9     4    20 1   
    10     5     6 1   
    11     5    18 1   
    12     5    19 1   
    13     6     7 1   
    14     6    21 1   
    15     6    22 1   
    16     7     8 1   
    17     7    23 1   
    18     7    24 1   
    19     8     9 1   
    20     8    12 1   
    21     8    25 1   
    22     9    10 1   
    23     9    11 1   
    24    12    26 1   
    25    12    27 1   
    26    13    16 1   
@<TRIPOS>SUBSTRUCTURE
     1 4JK         1 TEMP              0 ****  ****    0 ROOT
