@<TRIPOS>MOLECULE
4JL
   16    16     1     0     0
SMALL
No Charge or Current Charge


@<TRIPOS>ATOM
      1 Cl          -3.1120     0.0330    -0.1240 cl         1 4JL      -0.205000
      2 C4          -1.3600     0.0190     0.0290 ca         1 4JL       0.126000
      3 C3          -0.6720    -1.2030     0.0930 ca         1 4JL      -0.108000
      4 C2           0.7300    -1.2150     0.2150 ca         1 4JL      -0.080500
      5 C5          -0.6520     1.2300     0.0860 ca         1 4JL      -0.108000
      6 C6           0.7500     1.2190     0.2080 ca         1 4JL      -0.080500
      7 C1           1.4480    -0.0040     0.2740 ca         1 4JL      -0.087300
      8 C            2.9650    -0.0160     0.4090 c3         1 4JL       0.209900
      9 O            3.5780    -0.0240    -0.8840 oh         1 4JL      -0.652000
     10 H1          -1.2220    -2.1390     0.0480 ha         1 4JL       0.129000
     11 H2           1.2580    -2.1650     0.2620 ha         1 4JL       0.118000
     12 H3          -1.1870     2.1740     0.0350 ha         1 4JL       0.129000
     13 H4           1.2930     2.1610     0.2500 ha         1 4JL       0.118000
     14 H5           3.2860     0.8690     0.9760 h1         1 4JL       0.024200
     15 H6           3.2710    -0.9020     0.9810 h1         1 4JL       0.024200
     16 H7           4.5490    -0.0320    -0.7350 ho         1 4JL       0.442000
@<TRIPOS>BOND
     1     1     2 1   
     2     2     3 ar  
     3     2     5 ar  
     4     3     4 ar  
     5     3    10 1   
     6     4     7 ar  
     7     4    11 1   
     8     5     6 ar  
     9     5    12 1   
    10     6     7 ar  
    11     6    13 1   
    12     7     8 1   
    13     8     9 1   
    14     8    14 1   
    15     8    15 1   
    16     9    16 1   
@<TRIPOS>SUBSTRUCTURE
     1 4JL         1 TEMP              0 ****  ****    0 ROOT
