@<TRIPOS>MOLECULE
4JL
   16    16     1     0     0
SMALL
abcg2


@<TRIPOS>ATOM
      1 CL          -3.0350     0.0290    -0.1690 cl         1 4JL      -0.205000
      2 C4          -1.3120     0.0180     0.0110 ca         1 4JL       0.126000
      3 C3          -0.6420    -1.1930     0.0830 ca         1 4JL      -0.108000
      4 C2           0.7370    -1.1910     0.2310 ca         1 4JL      -0.080500
      5 C5          -0.6260     1.2200     0.0850 ca         1 4JL      -0.108000
      6 C6           0.7520     1.1990     0.2300 ca         1 4JL      -0.080500
      7 C1           1.4500    -0.0000     0.3110 ca         1 4JL      -0.087300
      8 C            2.9460    -0.0110     0.4210 c3         1 4JL       0.209900
      9 O            3.4780    -0.0370    -0.8830 oh         1 4JL      -0.652000
     10 H1          -1.1840    -2.1270     0.0260 ha         1 4JL       0.129000
     11 H2           1.2580    -2.1380     0.2910 ha         1 4JL       0.118000
     12 H3          -1.1570     2.1600     0.0280 ha         1 4JL       0.129000
     13 H4           1.2860     2.1390     0.2890 ha         1 4JL       0.118000
     14 H5           3.2750     0.8760     0.9780 h1         1 4JL       0.024200
     15 H6           3.2600    -0.8860     1.0060 h1         1 4JL       0.024200
     16 H7           4.4360    -0.0540    -0.8170 ho         1 4JL       0.442000
@<TRIPOS>BOND
     1     1     2 1   
     2     2     3 ar  
     3     2     5 ar  
     4     3     4 ar  
     5     3    10 1   
     6     4     7 ar  
     7     4    11 1   
     8     5     6 ar  
     9     5    12 1   
    10     6     7 ar  
    11     6    13 1   
    12     7     8 1   
    13     8     9 1   
    14     8    14 1   
    15     8    15 1   
    16     9    16 1   
@<TRIPOS>SUBSTRUCTURE
     1 4JL         1 TEMP              0 ****  ****    0 ROOT
