@<TRIPOS>MOLECULE
4JM
   18    18     1     0     0
SMALL
No Charge or Current Charge


@<TRIPOS>ATOM
      1 C1          -0.5520     0.2560     0.0150 ca         1 4JM      -0.132000
      2 C2           0.3010     1.3750     0.0140 ca         1 4JM      -0.066500
      3 C3           1.6970     1.2050     0.0030 ca         1 4JM      -0.165000
      4 C4           2.2500    -0.0830    -0.0070 ca         1 4JM       0.281000
      5 C5           1.4050    -1.2030    -0.0060 ca         1 4JM      -0.165000
      6 C6           0.0080    -1.0400     0.0050 ca         1 4JM      -0.066500
      7 N            3.6090    -0.2480    -0.0170 nv         1 4JM      -1.065000
      8 S           -2.3260     0.5480     0.0290 ss         1 4JM      -0.177000
      9 C           -3.1130    -1.1240     0.0280 c3         1 4JM       0.023900
     10 H1          -0.1190     2.3780     0.0210 ha         1 4JM       0.116000
     11 H2           2.3440     2.0780     0.0010 ha         1 4JM       0.112000
     12 H3           1.8280    -2.2040    -0.0140 ha         1 4JM       0.112000
     13 H4          -0.6180    -1.9270     0.0050 ha         1 4JM       0.116000
     14 H5           4.2190     0.5570     0.1180 hn         1 4JM       0.444000
     15 H6           4.0120    -1.1740     0.1120 hn         1 4JM       0.444000
     16 H7          -2.8180    -1.6750    -0.8730 h1         1 4JM       0.063033
     17 H8          -2.8040    -1.6820     0.9200 h1         1 4JM       0.063033
     18 H9          -4.2050    -1.0130     0.0370 h1         1 4JM       0.063033
@<TRIPOS>BOND
     1     1     2 ar  
     2     1     6 ar  
     3     1     8 1   
     4     2     3 ar  
     5     2    10 1   
     6     3     4 ar  
     7     3    11 1   
     8     4     5 ar  
     9     4     7 1   
    10     5     6 ar  
    11     5    12 1   
    12     6    13 1   
    13     7    14 1   
    14     7    15 1   
    15     8     9 1   
    16     9    16 1   
    17     9    17 1   
    18     9    18 1   
@<TRIPOS>SUBSTRUCTURE
     1 4JM         1 TEMP              0 ****  ****    0 ROOT
