@<TRIPOS>MOLECULE
4JM
   18    18     1     0     0
SMALL
bcc


@<TRIPOS>ATOM
      1 C1          -0.5650     0.2230     0.1240 ca         1 4JM      -0.005100
      2 C2           0.2790     1.3300     0.0280 ca         1 4JM      -0.084500
      3 C3           1.6510     1.1760    -0.0520 ca         1 4JM      -0.183000
      4 C4           2.2370    -0.0960    -0.0500 ca         1 4JM       0.142600
      5 C5           1.3870    -1.2000     0.0420 ca         1 4JM      -0.183000
      6 C6           0.0110    -1.0440     0.1320 ca         1 4JM      -0.084500
      7 N            3.6030    -0.2510    -0.1920 nv         1 4JM      -0.816200
      8 S           -2.2990     0.5300     0.2620 ss         1 4JM      -0.256000
      9 C           -3.0320    -1.0890    -0.0340 c3         1 4JM      -0.024000
     10 H1          -0.1360     2.3310     0.0140 ha         1 4JM       0.134000
     11 H2           2.2790     2.0560    -0.1270 ha         1 4JM       0.130000
     12 H3           1.8040    -2.2010     0.0460 ha         1 4JM       0.130000
     13 H4          -0.6030    -1.9310     0.2100 ha         1 4JM       0.134000
     14 H5           4.1570     0.5350     0.1110 hn         1 4JM       0.388800
     15 H6           3.9760    -1.1160     0.1650 hn         1 4JM       0.388800
     16 H7          -2.7090    -1.5050    -0.9870 h1         1 4JM       0.063033
     17 H8          -2.8130    -1.7920     0.7680 h1         1 4JM       0.063033
     18 H9          -4.1090    -0.9330    -0.0680 h1         1 4JM       0.063033
@<TRIPOS>BOND
     1     1     2 ar  
     2     1     6 ar  
     3     1     8 1   
     4     2     3 ar  
     5     2    10 1   
     6     3     4 ar  
     7     3    11 1   
     8     4     5 ar  
     9     4     7 1   
    10     5     6 ar  
    11     5    12 1   
    12     6    13 1   
    13     7    14 1   
    14     7    15 1   
    15     8     9 1   
    16     9    16 1   
    17     9    17 1   
    18     9    18 1   
@<TRIPOS>SUBSTRUCTURE
     1 4JM         1 TEMP              0 ****  ****    0 ROOT
