@<TRIPOS>MOLECULE
4JN
   13    13     1     0     0
SMALL
No Charge or Current Charge


@<TRIPOS>ATOM
      1 C2           0.5960     1.2430    -0.0210 ca         1 4JN      -0.088000
      2 C3          -0.1100     0.0250    -0.0220 ca         1 4JN       0.357200
      3 C4           1.8530    -1.1970    -0.0490 ca         1 4JN       0.270900
      4 N1           0.4940    -1.1840    -0.0360 nb         1 4JN      -0.610000
      5 C1           2.0050     1.2220    -0.0350 ca         1 4JN      -0.153000
      6 Br          -2.0210     0.0150    -0.0050 br         1 4JN      -0.166200
      7 C            2.6600    -0.0210    -0.0480 ca         1 4JN       0.261000
      8 N            4.0440    -0.0560    -0.0610 nv         1 4JN      -1.071000
      9 H1           0.0550     2.1850    -0.0110 ha         1 4JN       0.136000
     10 H2           2.3180    -2.1830    -0.0590 h4         1 4JN       0.023100
     11 H3           2.5690     2.1510    -0.0350 ha         1 4JN       0.121000
     12 H4           4.5820     0.8040     0.0490 hn         1 4JN       0.459000
     13 H5           4.5430    -0.9410     0.0360 hn         1 4JN       0.459000
@<TRIPOS>BOND
     1     1     2 ar  
     2     1     5 ar  
     3     1     9 1   
     4     2     4 ar  
     5     2     6 1   
     6     3     4 ar  
     7     3     7 ar  
     8     3    10 1   
     9     5     7 ar  
    10     5    11 1   
    11     7     8 1   
    12     8    12 1   
    13     8    13 1   
@<TRIPOS>SUBSTRUCTURE
     1 4JN         1 TEMP              0 ****  ****    0 ROOT
