@<TRIPOS>MOLECULE
4JN
   13    13     1     0     0
SMALL
abcg2


@<TRIPOS>ATOM
      1 C2           0.6000     1.2390    -0.0230 ca         1 4JN      -0.088000
      2 C3          -0.0630     0.0200    -0.0140 ca         1 4JN       0.357200
      3 C4           1.8710    -1.1620    -0.0660 ca         1 4JN       0.270900
      4 N1           0.5460    -1.1380    -0.0330 nb         1 4JN      -0.610000
      5 C1           1.9810     1.2180    -0.0590 ca         1 4JN      -0.153000
      6 BR          -1.9620    -0.0120     0.0360 br         1 4JN      -0.166200
      7 C            2.6620    -0.0060    -0.0840 ca         1 4JN       0.261000
      8 N            4.0250    -0.0760    -0.1710 nv         1 4JN      -1.071000
      9 H1           0.0670     2.1790    -0.0010 ha         1 4JN       0.136000
     10 H2           2.3380    -2.1410    -0.0790 h4         1 4JN       0.023100
     11 H3           2.5330     2.1500    -0.0670 ha         1 4JN       0.121000
     12 H4           4.5380     0.7320     0.1440 hn         1 4JN       0.459000
     13 H5           4.4520    -0.9400     0.1210 hn         1 4JN       0.459000
@<TRIPOS>BOND
     1     1     2 ar  
     2     1     5 ar  
     3     1     9 1   
     4     2     4 ar  
     5     2     6 1   
     6     3     4 ar  
     7     3     7 ar  
     8     3    10 1   
     9     5     7 ar  
    10     5    11 1   
    11     7     8 1   
    12     8    12 1   
    13     8    13 1   
@<TRIPOS>SUBSTRUCTURE
     1 4JN         1 TEMP              0 ****  ****    0 ROOT
