@<TRIPOS>MOLECULE
4JO
   16    16     1     0     0
SMALL
abcg2


@<TRIPOS>ATOM
      1 BR          -1.9830     0.2350    -0.1050 br         1 4JO      -0.095100
      2 C5          -0.0950     0.2210    -0.0680 ca         1 4JO      -0.137900
      3 C1           0.6160    -0.9740    -0.0250 ca         1 4JO       0.442300
      4 C           -0.0530    -2.3140    -0.0020 c3         1 4JO      -0.152400
      5 C4           0.5960     1.4280    -0.0800 ca         1 4JO      -0.006000
      6 C3           1.9710     1.4180    -0.0530 ca         1 4JO      -0.239000
      7 C2           2.6230     0.1750    -0.0130 ca         1 4JO       0.618900
      8 N            1.9470    -0.9710     0.0020 nb         1 4JO      -0.760000
      9 N1           3.9810     0.0920    -0.0310 nv         1 4JO      -1.054900
     10 H1          -0.6740    -2.4660    -0.8860 hc         1 4JO       0.059700
     11 H2           0.6970    -3.1010     0.0320 hc         1 4JO       0.059700
     12 H3          -0.7030    -2.4210     0.8680 hc         1 4JO       0.059700
     13 H4           0.0670     2.3720    -0.1100 ha         1 4JO       0.129000
     14 H5           2.5320     2.3430    -0.0620 ha         1 4JO       0.125000
     15 H6           4.5070     0.9040     0.2420 hn         1 4JO       0.475500
     16 H7           4.3850    -0.7850     0.2510 hn         1 4JO       0.475500
@<TRIPOS>BOND
     1     1     2 1   
     2     2     3 ar  
     3     2     5 ar  
     4     3     4 1   
     5     3     8 ar  
     6     4    10 1   
     7     4    11 1   
     8     4    12 1   
     9     5     6 ar  
    10     5    13 1   
    11     6     7 ar  
    12     6    14 1   
    13     7     8 ar  
    14     7     9 1   
    15     9    15 1   
    16     9    16 1   
@<TRIPOS>SUBSTRUCTURE
     1 4JO         1 TEMP              0 ****  ****    0 ROOT
