@<TRIPOS>MOLECULE
4JO
   16    16     1     0     0
SMALL
No Charge or Current Charge


@<TRIPOS>ATOM
      1 Br          -2.0200     0.2270    -0.0770 br         1 4JO      -0.095100
      2 C5          -0.1000     0.2400    -0.0630 ca         1 4JO      -0.137900
      3 C1           0.6550    -0.9570    -0.0280 ca         1 4JO       0.442300
      4 C           -0.0140    -2.3210     0.0010 c3         1 4JO      -0.152400
      5 C4           0.5760     1.4710    -0.0860 ca         1 4JO      -0.006000
      6 C3           1.9780     1.4480    -0.0750 ca         1 4JO      -0.239000
      7 C2           2.6180     0.2080    -0.0430 ca         1 4JO       0.618900
      8 N            2.0090    -0.9670    -0.0170 nb         1 4JO      -0.760000
      9 N1           3.9420     0.0620    -0.0220 nv         1 4JO      -1.054900
     10 H1          -0.6390    -2.4650    -0.8870 hc         1 4JO       0.059700
     11 H2           0.7180    -3.1370     0.0260 hc         1 4JO       0.059700
     12 H3          -0.6510    -2.4220     0.8860 hc         1 4JO       0.059700
     13 H4           0.0310     2.4130    -0.1130 ha         1 4JO       0.129000
     14 H5           2.5520     2.3690    -0.0930 ha         1 4JO       0.125000
     15 H6           4.4900     0.8470     0.3130 hn         1 4JO       0.475500
     16 H7           4.2670    -0.8610     0.2380 hn         1 4JO       0.475500
@<TRIPOS>BOND
     1     1     2 1   
     2     2     3 ar  
     3     2     5 ar  
     4     3     4 1   
     5     3     8 ar  
     6     4    10 1   
     7     4    11 1   
     8     4    12 1   
     9     5     6 ar  
    10     5    13 1   
    11     6     7 ar  
    12     6    14 1   
    13     7     8 ar  
    14     7     9 1   
    15     9    15 1   
    16     9    16 1   
@<TRIPOS>SUBSTRUCTURE
     1 4JO         1 TEMP              0 ****  ****    0 ROOT
