@<TRIPOS>MOLECULE
4JP
   15    16     1     0     0
SMALL
abcg2


@<TRIPOS>ATOM
      1 C01          2.0840     0.6870    -0.0520 ca         1 4JP      -0.152000
      2 C02          0.9140     1.4220    -0.0260 ca         1 4JP      -0.088000
      3 C03         -0.2650     0.6900    -0.0140 ca         1 4JP      -0.100200
      4 C04         -0.2250    -0.7260    -0.0280 ca         1 4JP       0.337800
      5 C05         -1.5780    -1.1790    -0.0100 cc         1 4JP      -0.347800
      6 C06         -2.3570    -0.0570     0.0140 cd         1 4JP      -0.157100
      7 N07         -1.5740     1.0600     0.0100 na         1 4JP      -0.219700
      8 N08          0.9160    -1.4210    -0.0530 nb         1 4JP      -0.623000
      9 C09          2.0330    -0.7150    -0.0650 ca         1 4JP       0.312900
     10 H1           3.0450     1.1830    -0.0620 ha         1 4JP       0.119000
     11 H2           0.9220     2.5050    -0.0160 ha         1 4JP       0.117000
     12 H3          -1.9260    -2.2000    -0.0120 ha         1 4JP       0.217000
     13 H4          -3.4310     0.0320     0.0330 h4         1 4JP       0.214000
     14 H5          -1.9190     2.0060     0.0320 hn         1 4JP       0.351000
     15 H6           2.9600    -1.2780    -0.0850 h4         1 4JP       0.017100
@<TRIPOS>BOND
     1     1     2 ar  
     2     1     9 ar  
     3     1    10 1   
     4     2     3 ar  
     5     2    11 1   
     6     3     4 ar  
     7     3     7 1   
     8     4     5 1   
     9     4     8 ar  
    10     5     6 2   
    11     5    12 1   
    12     6     7 1   
    13     6    13 1   
    14     7    14 1   
    15     8     9 ar  
    16     9    15 1   
@<TRIPOS>SUBSTRUCTURE
     1 4JP         1 TEMP              0 ****  ****    0 ROOT
