@<TRIPOS>MOLECULE
4JP
   15    16     1     0     0
SMALL
No Charge or Current Charge


@<TRIPOS>ATOM
      1 C01          2.1080     0.6830    -0.0520 ca         1 4JP      -0.152000
      2 C02          0.9030     1.4190    -0.0250 ca         1 4JP      -0.088000
      3 C03         -0.2760     0.6650    -0.0130 ca         1 4JP      -0.100200
      4 C04         -0.2180    -0.7030    -0.0270 ca         1 4JP       0.337800
      5 C05         -1.5620    -1.1730    -0.0100 cc         1 4JP      -0.347800
      6 C06         -2.3960    -0.0580     0.0150 cd         1 4JP      -0.157100
      7 N07         -1.5920     1.1110     0.0130 na         1 4JP      -0.219700
      8 N08          0.9040    -1.4430    -0.0530 nb         1 4JP      -0.623000
      9 C09          2.0630    -0.7340    -0.0660 ca         1 4JP       0.312900
     10 H1           3.0670     1.1940    -0.0630 ha         1 4JP       0.119000
     11 H2           0.8940     2.5070    -0.0140 ha         1 4JP       0.117000
     12 H3          -1.8820    -2.2120    -0.0140 ha         1 4JP       0.217000
     13 H4          -3.4850    -0.0060     0.0340 h4         1 4JP       0.214000
     14 H5          -1.9120     2.0760     0.0280 hn         1 4JP       0.351000
     15 H6           2.9840    -1.3150    -0.0860 h4         1 4JP       0.017100
@<TRIPOS>BOND
     1     1     2 ar  
     2     1     9 ar  
     3     1    10 1   
     4     2     3 ar  
     5     2    11 1   
     6     3     4 ar  
     7     3     7 1   
     8     4     5 1   
     9     4     8 ar  
    10     5     6 2   
    11     5    12 1   
    12     6     7 1   
    13     6    13 1   
    14     7    14 1   
    15     8     9 ar  
    16     9    15 1   
@<TRIPOS>SUBSTRUCTURE
     1 4JP         1 TEMP              0 ****  ****    0 ROOT
