@<TRIPOS>MOLECULE
4JQ
   19    20     1     0     0
SMALL
abcg2


@<TRIPOS>ATOM
      1 C1           2.1600     1.2120    -0.0430 ca         1 4JQ      -0.128000
      2 C2           0.8310     1.5840    -0.0180 ca         1 4JQ      -0.090000
      3 C3          -0.1510     0.6050    -0.0180 ca         1 4JQ       0.125100
      4 C4          -2.4890     0.1310     0.0090 c          1 4JQ       0.669300
      5 C5          -2.1560    -1.2810    -0.0170 cc         1 4JQ      -0.317200
      6 C6          -0.8780    -1.6940    -0.0400 cd         1 4JQ      -0.075200
      7 C7           0.1980    -0.7420    -0.0420 ca         1 4JQ      -0.112800
      8 C8           1.5460    -1.1050    -0.0650 ca         1 4JQ      -0.132000
      9 O1          -3.6040     0.5900     0.0330 o          1 4JQ      -0.488000
     10 O           -1.4510     0.9980     0.0070 os         1 4JQ      -0.332200
     11 C            2.5440    -0.1400    -0.0650 ca         1 4JQ       0.272000
     12 N            3.8790    -0.4830    -0.1400 nv         1 4JQ      -1.075000
     13 H1           2.9170     1.9850    -0.0460 ha         1 4JQ       0.121000
     14 H2           0.5600     2.6310     0.0040 ha         1 4JQ       0.138000
     15 H3          -2.9790    -1.9790    -0.0170 ha         1 4JQ       0.212000
     16 H4          -0.6510    -2.7520    -0.0600 ha         1 4JQ       0.191000
     17 H5           1.8040    -2.1570    -0.0840 ha         1 4JQ       0.118000
     18 H6           4.5280     0.1980     0.2180 hn         1 4JQ       0.451500
     19 H7           4.1120    -1.4150     0.1550 hn         1 4JQ       0.451500
@<TRIPOS>BOND
     1     1     2 ar  
     2     1    11 ar  
     3     1    13 1   
     4     2     3 ar  
     5     2    14 1   
     6     3     7 ar  
     7     3    10 1   
     8     4     5 1   
     9     4     9 2   
    10     4    10 1   
    11     5     6 2   
    12     5    15 1   
    13     6     7 1   
    14     6    16 1   
    15     7     8 ar  
    16     8    11 ar  
    17     8    17 1   
    18    11    12 1   
    19    12    18 1   
    20    12    19 1   
@<TRIPOS>SUBSTRUCTURE
     1 4JQ         1 TEMP              0 ****  ****    0 ROOT
