@<TRIPOS>MOLECULE
4JQ
   19    20     1     0     0
SMALL
No Charge or Current Charge


@<TRIPOS>ATOM
      1 C1           2.2020     1.2360    -0.0190 ca         1 4JQ      -0.128000
      2 C2           0.8470     1.6170    -0.0090 ca         1 4JQ      -0.090000
      3 C3          -0.1560     0.6350    -0.0140 ca         1 4JQ       0.125100
      4 C4          -2.5360     0.1380    -0.0080 c          1 4JQ       0.669300
      5 C5          -2.1860    -1.2940    -0.0240 cc         1 4JQ      -0.317200
      6 C6          -0.8780    -1.7210    -0.0340 cd         1 4JQ      -0.075200
      7 C7           0.1910    -0.7280    -0.0290 ca         1 4JQ      -0.112800
      8 C8           1.5480    -1.1060    -0.0390 ca         1 4JQ      -0.132000
      9 O1          -3.6940     0.5270     0.0010 o          1 4JQ      -0.488000
     10 O           -1.4800     1.0170    -0.0040 os         1 4JQ      -0.332200
     11 C            2.5540    -0.1240    -0.0330 ca         1 4JQ       0.272000
     12 N            3.8750    -0.4930    -0.0420 nv         1 4JQ      -1.075000
     13 H1           2.9750     2.0000    -0.0150 ha         1 4JQ       0.121000
     14 H2           0.5740     2.6700     0.0030 ha         1 4JQ       0.138000
     15 H3          -3.0230    -1.9810    -0.0280 ha         1 4JQ       0.212000
     16 H4          -0.6480    -2.7850    -0.0460 ha         1 4JQ       0.191000
     17 H5           1.8180    -2.1580    -0.0510 ha         1 4JQ       0.118000
     18 H6           4.6030     0.2080     0.0900 hn         1 4JQ       0.451500
     19 H7           4.1350    -1.4710     0.0740 hn         1 4JQ       0.451500
@<TRIPOS>BOND
     1     1     2 ar  
     2     1    11 ar  
     3     1    13 1   
     4     2     3 ar  
     5     2    14 1   
     6     3     7 ar  
     7     3    10 1   
     8     4     5 1   
     9     4     9 2   
    10     4    10 1   
    11     5     6 2   
    12     5    15 1   
    13     6     7 1   
    14     6    16 1   
    15     7     8 ar  
    16     8    11 ar  
    17     8    17 1   
    18    11    12 1   
    19    12    18 1   
    20    12    19 1   
@<TRIPOS>SUBSTRUCTURE
     1 4JQ         1 TEMP              0 ****  ****    0 ROOT
