@<TRIPOS>MOLECULE
4JR
   58    62     1     0     0
SMALL
No Charge or Current Charge


@<TRIPOS>ATOM
      1 N1          -7.4110    -0.0380     0.7130 na         1 4JR      -0.165500
      2 N3          -4.2180     0.3110    -0.7820 n3         1 4JR      -0.698600
      3 C4          -6.7400    -0.0760    -0.5000 cc         1 4JR       0.390800
      4 C5          -5.6030     0.8650    -0.8950 c3         1 4JR       0.148500
      5 C6          -3.1970     1.2390    -1.3360 c6         1 4JR       0.167300
      6 C7          -1.7780     0.6160    -1.3030 c6         1 4JR      -0.059900
      7 C8          -1.3440     0.1700     0.1350 c5         1 4JR      -0.133000
      8 C10          0.3600     1.8060     0.6810 c5         1 4JR       0.098000
      9 C13          3.2260     1.3780    -0.1320 ca         1 4JR      -0.138500
     10 C15          5.2480    -0.0030     0.0770 cp         1 4JR      -0.055000
     11 C17          3.0340    -0.8920     0.6740 ca         1 4JR      -0.138500
     12 C20          8.6790    -1.5840    -0.5860 ca         1 4JR      -0.110500
     13 C21          9.5400    -0.5020    -0.3410 ca         1 4JR      -0.109000
     14 C22          9.0090     0.7400     0.0390 ca         1 4JR      -0.110500
     15 C24         -2.4680    -0.7850     0.6420 c6         1 4JR      -0.059900
     16 C1          -7.1670     0.8890     1.8310 c3         1 4JR       0.056900
     17 C2          -8.3660    -1.0320     0.6850 cc         1 4JR      -0.233000
     18 C3          -8.2470    -1.6260    -0.5440 cd         1 4JR       0.231900
     19 N2          -7.2440    -1.0290    -1.2770 nd         1 4JR      -0.645000
     20 C25         -3.8670    -0.1210     0.5990 c6         1 4JR       0.167300
     21 C11          0.0450    -0.5090     0.0850 c          1 4JR       0.570000
     22 O            0.2900    -1.6890    -0.1360 o          1 4JR      -0.522000
     23 C9          -1.0720     1.3720     1.0970 c5         1 4JR      -0.090400
     24 N4           0.9840     0.5040     0.3710 n          1 4JR      -0.230400
     25 C12          2.4200     0.3480     0.3960 ca         1 4JR      -0.015000
     26 C14          4.6150     1.2150    -0.2670 ca         1 4JR      -0.079000
     27 C16          4.4240    -1.0570     0.5410 ca         1 4JR      -0.079000
     28 C18          6.7290    -0.1770    -0.0680 cp         1 4JR      -0.028000
     29 C23          7.6190     0.9010     0.1730 ca         1 4JR      -0.101500
     30 C19          7.2890    -1.4230    -0.4500 ca         1 4JR      -0.101500
     31 H2          -5.6830     1.7810    -0.2950 h1         1 4JR       0.043700
     32 H3          -5.7850     1.1660    -1.9350 h1         1 4JR       0.043700
     33 H4          -3.4430     1.4880    -2.3790 h1         1 4JR       0.030450
     34 H5          -3.1970     2.1850    -0.7760 h1         1 4JR       0.030450
     35 H6          -1.7610    -0.2540    -1.9750 hc         1 4JR       0.063950
     36 H7          -1.0590     1.3300    -1.7250 hc         1 4JR       0.063950
     37 H8           0.3490     2.4530    -0.2050 h1         1 4JR       0.050700
     38 H9           0.8810     2.3320     1.4920 h1         1 4JR       0.050700
     39 H11          2.4500    -1.7310     1.0400 ha         1 4JR       0.125000
     40 H12          9.0880    -2.5470    -0.8840 ha         1 4JR       0.111500
     41 H13         10.6160    -0.6270    -0.4460 ha         1 4JR       0.112000
     42 H14          9.6740     1.5790     0.2320 ha         1 4JR       0.111500
     43 H15         -2.4910    -1.6970     0.0300 hc         1 4JR       0.063950
     44 H16         -2.2510    -1.1120     1.6680 hc         1 4JR       0.063950
     45 H17         -6.1520     0.7440     2.2190 h1         1 4JR       0.051367
     46 H18         -7.2800     1.9240     1.4840 h1         1 4JR       0.051367
     47 H19         -7.8890     0.7010     2.6350 h1         1 4JR       0.051367
     48 H20         -9.0410    -1.2380     1.5060 h4         1 4JR       0.154000
     49 H21         -8.8290    -2.4490    -0.9410 h4         1 4JR       0.039100
     50 H22         -3.8840     0.7390     1.2850 h1         1 4JR       0.030450
     51 H23         -4.6030    -0.8480     0.9710 h1         1 4JR       0.030450
     52 H24         -1.7970     2.1890     1.0160 hc         1 4JR       0.058200
     53 H25         -1.0760     1.0460     2.1440 hc         1 4JR       0.058200
     54 H26          5.2030     2.0370    -0.6680 ha         1 4JR       0.115500
     55 H27          4.8660    -2.0130     0.8110 ha         1 4JR       0.115500
     56 H28          7.2300     1.8680     0.4810 ha         1 4JR       0.113500
     57 H29          6.6410    -2.2700    -0.6580 ha         1 4JR       0.113500
     58 H10          2.7800     2.3190    -0.4450 ha         1 4JR       0.125000
@<TRIPOS>BOND
     1     1     3 1   
     2     1    16 1   
     3     1    17 1   
     4     2     4 1   
     5     2     5 1   
     6     2    20 1   
     7     3     4 1   
     8     3    19 2   
     9     4    31 1   
    10     4    32 1   
    11     5     6 1   
    12     5    33 1   
    13     5    34 1   
    14     6     7 1   
    15     6    35 1   
    16     6    36 1   
    17     7    15 1   
    18     7    21 1   
    19     7    23 1   
    20     8    23 1   
    21     8    24 1   
    22     8    37 1   
    23     8    38 1   
    24     9    25 ar  
    25     9    26 ar  
    26     9    58 1   
    27    10    26 ar  
    28    10    27 ar  
    29    10    28 1   
    30    11    25 ar  
    31    11    27 ar  
    32    11    39 1   
    33    12    13 ar  
    34    12    30 ar  
    35    12    40 1   
    36    13    14 ar  
    37    13    41 1   
    38    14    29 ar  
    39    14    42 1   
    40    15    20 1   
    41    15    43 1   
    42    15    44 1   
    43    16    45 1   
    44    16    46 1   
    45    16    47 1   
    46    17    18 2   
    47    17    48 1   
    48    18    19 1   
    49    18    49 1   
    50    20    50 1   
    51    20    51 1   
    52    21    22 2   
    53    21    24 1   
    54    23    52 1   
    55    23    53 1   
    56    24    25 1   
    57    26    54 1   
    58    27    55 1   
    59    28    29 ar  
    60    28    30 ar  
    61    29    56 1   
    62    30    57 1   
@<TRIPOS>SUBSTRUCTURE
     1 4JR         1 TEMP              0 ****  ****    0 ROOT
