@<TRIPOS>MOLECULE
4JR
   58    62     1     0     0
SMALL
bcc


@<TRIPOS>ATOM
      1 N1          -7.2890    -0.1560     0.7260 na         1 4JR      -0.186900
      2 N3          -4.1680     0.3440    -0.6910 n3         1 4JR      -0.698600
      3 C4          -6.5310    -0.2080    -0.3960 cc         1 4JR       0.390800
      4 C5          -5.5310     0.8350    -0.7760 c3         1 4JR       0.148500
      5 C6          -3.2440     1.2730    -1.3130 c6         1 4JR       0.167300
      6 C7          -1.8280     0.7170    -1.3320 c6         1 4JR      -0.059900
      7 C8          -1.3510     0.3460     0.0840 c5         1 4JR      -0.133000
      8 C10          0.4330     1.8730     0.6120 c5         1 4JR       0.098000
      9 C13          3.2030     1.3920    -0.0980 ca         1 4JR      -0.156500
     10 C15          5.1460    -0.0490     0.0400 cp         1 4JR      -0.055000
     11 C17          2.9190    -0.9260     0.4490 ca         1 4JR      -0.156500
     12 C20          8.5010    -1.6330    -0.6510 ca         1 4JR      -0.128500
     13 C21          9.3760    -0.6360    -0.2390 ca         1 4JR      -0.127000
     14 C22          8.8660     0.5540     0.2650 ca         1 4JR      -0.128500
     15 C24         -2.3900    -0.5760     0.7150 c6         1 4JR      -0.059900
     16 C1          -7.2810     0.8790     1.7390 c3         1 4JR       0.027600
     17 C2          -8.0750    -1.2730     0.7360 cc         1 4JR      -0.265600
     18 C3          -7.7510    -1.9600    -0.3980 cd         1 4JR       0.297200
     19 N2          -6.7930    -1.2870    -1.0950 nd         1 4JR      -0.645000
     20 C25         -3.7750     0.0490     0.6750 c6         1 4JR       0.167300
     21 C11          0.0020    -0.3390    -0.0340 c          1 4JR       0.712500
     22 O            0.1830    -1.4800    -0.4110 o          1 4JR      -0.597500
     23 C9          -1.0280     1.5810     0.9270 c5         1 4JR      -0.090400
     24 N4           0.9750     0.5530     0.3100 n          1 4JR      -0.390000
     25 C12          2.3540     0.3290     0.2110 ca         1 4JR       0.077600
     26 C14          4.5720     1.2020    -0.1800 ca         1 4JR      -0.097000
     27 C16          4.2880    -1.1020     0.3580 ca         1 4JR      -0.097000
     28 C18          6.6050    -0.2510    -0.0550 cp         1 4JR      -0.028000
     29 C23          7.4950     0.7430     0.3570 ca         1 4JR      -0.119500
     30 C19          7.1300    -1.4420    -0.5610 ca         1 4JR      -0.119500
     31 H2          -5.6850     1.7440    -0.1730 h1         1 4JR       0.043700
     32 H3          -5.7200     1.1230    -1.8130 h1         1 4JR       0.043700
     33 H4          -3.5680     1.4530    -2.3410 h1         1 4JR       0.030450
     34 H5          -3.2540     2.2560    -0.8100 h1         1 4JR       0.030450
     35 H6          -1.8030    -0.1740    -1.9640 hc         1 4JR       0.063950
     36 H7          -1.1620     1.4540    -1.7880 hc         1 4JR       0.063950
     37 H8           0.5350     2.5440    -0.2450 h1         1 4JR       0.050700
     38 H9           0.9650     2.3180     1.4520 h1         1 4JR       0.050700
     39 H11          2.3030    -1.7670     0.7280 ha         1 4JR       0.143000
     40 H12          8.8860    -2.5610    -1.0520 ha         1 4JR       0.129500
     41 H13         10.4450    -0.7850    -0.3110 ha         1 4JR       0.130000
     42 H14          9.5370     1.3360     0.5960 ha         1 4JR       0.129500
     43 H15         -2.4160    -1.5250     0.1750 hc         1 4JR       0.063950
     44 H16         -2.1200    -0.7970     1.7500 hc         1 4JR       0.063950
     45 H17         -6.2930     0.9820     2.1830 h1         1 4JR       0.051367
     46 H18         -7.5810     1.8380     1.3200 h1         1 4JR       0.051367
     47 H19         -7.9830     0.6110     2.5220 h1         1 4JR       0.051367
     48 H20         -8.7770    -1.4730     1.5280 h4         1 4JR       0.172000
     49 H21         -8.1610    -2.8960    -0.7450 h4         1 4JR       0.039100
     50 H22         -3.7970     0.9560     1.3060 h1         1 4JR       0.030450
     51 H23         -4.4870    -0.6550     1.1120 h1         1 4JR       0.030450
     52 H24         -1.6650     2.4370     0.7110 hc         1 4JR       0.058200
     53 H25         -1.1400     1.3500     1.9890 hc         1 4JR       0.058200
     54 H26          5.1960     2.0480    -0.4430 ha         1 4JR       0.133500
     55 H27          4.6950    -2.0830     0.5710 ha         1 4JR       0.133500
     56 H28          7.1170     1.6680     0.7750 ha         1 4JR       0.131500
     57 H29          6.4640    -2.2230    -0.9060 ha         1 4JR       0.131500
     58 H10          2.8040     2.3780    -0.2960 ha         1 4JR       0.143000
@<TRIPOS>BOND
     1     1     3 1   
     2     1    16 1   
     3     1    17 1   
     4     2     4 1   
     5     2     5 1   
     6     2    20 1   
     7     3     4 1   
     8     3    19 2   
     9     4    31 1   
    10     4    32 1   
    11     5     6 1   
    12     5    33 1   
    13     5    34 1   
    14     6     7 1   
    15     6    35 1   
    16     6    36 1   
    17     7    15 1   
    18     7    21 1   
    19     7    23 1   
    20     8    23 1   
    21     8    24 1   
    22     8    37 1   
    23     8    38 1   
    24     9    25 ar  
    25     9    26 ar  
    26     9    58 1   
    27    10    26 ar  
    28    10    27 ar  
    29    10    28 1   
    30    11    25 ar  
    31    11    27 ar  
    32    11    39 1   
    33    12    13 ar  
    34    12    30 ar  
    35    12    40 1   
    36    13    14 ar  
    37    13    41 1   
    38    14    29 ar  
    39    14    42 1   
    40    15    20 1   
    41    15    43 1   
    42    15    44 1   
    43    16    45 1   
    44    16    46 1   
    45    16    47 1   
    46    17    18 2   
    47    17    48 1   
    48    18    19 1   
    49    18    49 1   
    50    20    50 1   
    51    20    51 1   
    52    21    22 2   
    53    21    24 1   
    54    23    52 1   
    55    23    53 1   
    56    24    25 1   
    57    26    54 1   
    58    27    55 1   
    59    28    29 ar  
    60    28    30 ar  
    61    29    56 1   
    62    30    57 1   
@<TRIPOS>SUBSTRUCTURE
     1 4JR         1 TEMP              0 ****  ****    0 ROOT
