@<TRIPOS>MOLECULE
4JS
   27    28     1     0     0
SMALL
abcg2


@<TRIPOS>ATOM
      1 N1          -1.4760     1.8490     0.0810 nb         1 4JS      -0.638000
      2 C11         -0.1510    -0.6180    -0.0120 ca         1 4JS      -0.100000
      3 C5          -2.1960     0.7000     0.0550 ca         1 4JS       0.240000
      4 C4          -0.1800     1.7730     0.0630 ca         1 4JS       0.316900
      5 C3           0.5580     0.5570     0.0170 ca         1 4JS      -0.080000
      6 C6          -3.6050     0.7730     0.0760 ca         1 4JS      -0.073000
      7 C1           4.3050     0.2340     0.0360 c3         1 4JS      -0.158400
      8 C2           2.8880    -0.2960     0.0330 c          1 4JS       0.604100
      9 C9          -2.3600    -1.7300    -0.0200 ca         1 4JS      -0.097000
     10 C8          -3.7250    -1.6350     0.0010 ca         1 4JS      -0.101000
     11 C7          -4.3540    -0.3730     0.0500 ca         1 4JS      -0.112000
     12 O            2.6170    -1.4810     0.0580 o          1 4JS      -0.572100
     13 C            5.3590    -0.8570     0.0340 c3         1 4JS      -0.077100
     14 N            1.9420     0.6850     0.0040 ns         1 4JS      -0.147000
     15 C10         -1.5620    -0.5630     0.0070 ca         1 4JS      -0.053000
     16 H1           0.3380    -1.5790    -0.0510 ha         1 4JS       0.153000
     17 H2           0.3660     2.7130     0.0860 h4         1 4JS       0.011100
     18 H3          -4.0740     1.7480     0.1150 ha         1 4JS       0.129000
     19 H4           4.4290     0.8890    -0.8320 hc         1 4JS       0.058200
     20 H5           4.4250     0.8810     0.9090 hc         1 4JS       0.058200
     21 H6          -1.8770    -2.6990    -0.0590 ha         1 4JS       0.119000
     22 H7          -4.3310    -2.5310    -0.0210 ha         1 4JS       0.115000
     23 H8          -5.4340    -0.3150     0.0670 ha         1 4JS       0.116000
     24 H9           6.3530    -0.4100     0.0390 hc         1 4JS       0.045033
     25 H10          5.2790    -1.4970     0.9120 hc         1 4JS       0.045033
     26 H11          5.2850    -1.4880    -0.8510 hc         1 4JS       0.045033
     27 H12          2.2860     1.6350    -0.0120 hn         1 4JS       0.151000
@<TRIPOS>BOND
     1     1     3 ar  
     2     1     4 ar  
     3     2     5 ar  
     4     2    15 ar  
     5     2    16 1   
     6     3     6 ar  
     7     3    15 ar  
     8     4     5 ar  
     9     4    17 1   
    10     5    14 1   
    11     6    11 ar  
    12     6    18 1   
    13     7     8 1   
    14     7    13 1   
    15     7    19 1   
    16     7    20 1   
    17     8    12 2   
    18     8    14 1   
    19     9    10 ar  
    20     9    15 ar  
    21     9    21 1   
    22    10    11 ar  
    23    10    22 1   
    24    11    23 1   
    25    13    24 1   
    26    13    25 1   
    27    13    26 1   
    28    14    27 1   
@<TRIPOS>SUBSTRUCTURE
     1 4JS         1 TEMP              0 ****  ****    0 ROOT
