@<TRIPOS>MOLECULE
4JS
   27    28     1     0     0
SMALL
No Charge or Current Charge


@<TRIPOS>ATOM
      1 N1          -1.4250     1.7870    -0.4330 nb         1 4JS      -0.638000
      2 C11         -0.1860    -0.6430     0.2990 ca         1 4JS      -0.100000
      3 C5          -2.1720     0.6780    -0.2260 ca         1 4JS       0.240000
      4 C4          -0.0830     1.7000    -0.2820 ca         1 4JS       0.316900
      5 C3           0.5900     0.5160     0.0840 ca         1 4JS      -0.080000
      6 C6          -3.5710     0.7380    -0.3760 ca         1 4JS      -0.073000
      7 C1           4.3960     0.0890     0.5830 c3         1 4JS      -0.158400
      8 C2           2.9420    -0.4050     0.5870 c          1 4JS       0.604100
      9 C9          -2.3840    -1.6990     0.3520 ca         1 4JS      -0.097000
     10 C8          -3.7770    -1.6190     0.1960 ca         1 4JS      -0.101000
     11 C7          -4.3710    -0.4000    -0.1670 ca         1 4JS      -0.112000
     12 O            2.6580    -1.5460     0.9310 o          1 4JS      -0.572100
     13 C            5.2010    -0.5040    -0.5960 c3         1 4JS      -0.077100
     14 N            2.0100     0.5550     0.2090 ns         1 4JS      -0.147000
     15 C10         -1.5820    -0.5600     0.1430 ca         1 4JS      -0.053000
     16 H1           0.2630    -1.5910     0.5770 ha         1 4JS       0.153000
     17 H2           0.4750     2.6190    -0.4600 h4         1 4JS       0.011100
     18 H3          -4.0390     1.6770    -0.6580 ha         1 4JS       0.129000
     19 H4           4.4240     1.1830     0.5000 hc         1 4JS       0.058200
     20 H5           4.8780    -0.2230     1.5170 hc         1 4JS       0.058200
     21 H6          -1.9290    -2.6470     0.6340 ha         1 4JS       0.119000
     22 H7          -4.3950    -2.5000     0.3580 ha         1 4JS       0.115000
     23 H8          -5.4500    -0.3350    -0.2880 ha         1 4JS       0.116000
     24 H9           6.2350    -0.1390    -0.5770 hc         1 4JS       0.045033
     25 H10          5.2240    -1.5990    -0.5400 hc         1 4JS       0.045033
     26 H11          4.7540    -0.2170    -1.5560 hc         1 4JS       0.045033
     27 H12          2.4170     1.4510    -0.0260 hn         1 4JS       0.151000
@<TRIPOS>BOND
     1     1     3 ar  
     2     1     4 ar  
     3     2     5 ar  
     4     2    15 ar  
     5     2    16 1   
     6     3     6 ar  
     7     3    15 ar  
     8     4     5 ar  
     9     4    17 1   
    10     5    14 1   
    11     6    11 ar  
    12     6    18 1   
    13     7     8 1   
    14     7    13 1   
    15     7    19 1   
    16     7    20 1   
    17     8    12 2   
    18     8    14 1   
    19     9    10 ar  
    20     9    15 ar  
    21     9    21 1   
    22    10    11 ar  
    23    10    22 1   
    24    11    23 1   
    25    13    24 1   
    26    13    25 1   
    27    13    26 1   
    28    14    27 1   
@<TRIPOS>SUBSTRUCTURE
     1 4JS         1 TEMP              0 ****  ****    0 ROOT
