@<TRIPOS>MOLECULE
4JT
   19    20     1     0     0
SMALL
bcc


@<TRIPOS>ATOM
      1 C10          2.7960     1.1150     0.1380 ca         1 4JT      -0.112000
      2 C11          3.0090    -0.2580     0.0780 ca         1 4JT      -0.145000
      3 C8           1.5120     1.6260     0.0650 ca         1 4JT      -0.118000
      4 C9           1.9220    -1.1110    -0.0340 ca         1 4JT      -0.085000
      5 C4           0.3980     0.7890    -0.0710 ca         1 4JT       0.188400
      6 C5           0.6310    -0.5990    -0.1010 ca         1 4JT      -0.042100
      7 C3          -1.9190     0.7150     0.0360 c2         1 4JT       0.681200
      8 C6          -1.9140    -0.6610     0.6470 c6         1 4JT      -0.113600
      9 N1          -0.8430     1.3740    -0.2330 ne         1 4JT      -0.697100
     10 N7          -3.1190     1.2530    -0.1960 nv         1 4JT      -0.939800
     11 S2          -0.7440    -1.6820    -0.2720 ss         1 4JT      -0.220000
     12 H1           3.6360     1.7910     0.2390 ha         1 4JT       0.131000
     13 H2           4.0110    -0.6640     0.1290 ha         1 4JT       0.132000
     14 H3           1.3470     2.6960     0.0970 ha         1 4JT       0.143000
     15 H4           2.0730    -2.1840    -0.0610 ha         1 4JT       0.136000
     16 H5          -1.6220    -0.6050     1.6980 h1         1 4JT       0.087200
     17 H6          -2.8890    -1.1420     0.5880 h1         1 4JT       0.087200
     18 H7          -3.1930     2.1780    -0.5860 hn         1 4JT       0.442300
     19 H8          -3.9690     0.7680     0.0280 hn         1 4JT       0.442300
@<TRIPOS>BOND
     1     1     2 ar  
     2     1     3 ar  
     3     1    12 1   
     4     2     4 ar  
     5     2    13 1   
     6     3     5 ar  
     7     3    14 1   
     8     4     6 ar  
     9     4    15 1   
    10     5     6 ar  
    11     5     9 1   
    12     6    11 1   
    13     7     8 1   
    14     7     9 2   
    15     7    10 1   
    16     8    11 1   
    17     8    16 1   
    18     8    17 1   
    19    10    18 1   
    20    10    19 1   
@<TRIPOS>SUBSTRUCTURE
     1 4JT         1 TEMP              0 ****  ****    0 ROOT
