@<TRIPOS>MOLECULE
4JT
   19    20     1     0     0
SMALL
No Charge or Current Charge


@<TRIPOS>ATOM
      1 C10          2.8260     1.1690     0.0090 ca         1 4JT      -0.094000
      2 C11          3.0600    -0.2140     0.0370 ca         1 4JT      -0.127000
      3 C8           1.5090     1.6560    -0.0180 ca         1 4JT      -0.100000
      4 C9           1.9780    -1.1090     0.0380 ca         1 4JT      -0.067000
      5 C4           0.4120     0.7730    -0.0110 ca         1 4JT       0.188400
      6 C5           0.6550    -0.6270     0.0180 ca         1 4JT      -0.169000
      7 C3          -1.9590     0.6750     0.1750 c2         1 4JT       0.681200
      8 C6          -2.0570    -0.7740     0.5870 c6         1 4JT      -0.065700
      9 N1          -0.8860     1.3390    -0.0590 ne         1 4JT      -0.697100
     10 N7          -3.1040     1.3960     0.0850 nv         1 4JT      -1.050200
     11 S2          -0.6720    -1.8290     0.0080 ss         1 4JT      -0.141000
     12 H1           3.6640     1.8630     0.0050 ha         1 4JT       0.113000
     13 H2           4.0790    -0.5940     0.0550 ha         1 4JT       0.114000
     14 H3           1.3350     2.7280    -0.0450 ha         1 4JT       0.125000
     15 H4           2.1660    -2.1800     0.0560 ha         1 4JT       0.118000
     16 H5          -2.0610    -0.8160     1.6830 h1         1 4JT       0.087200
     17 H6          -2.9940    -1.2180     0.2300 h1         1 4JT       0.087200
     18 H7          -2.9320     2.2810    -0.3790 hn         1 4JT       0.497500
     19 H8          -3.8950     0.8830    -0.2860 hn         1 4JT       0.497500
@<TRIPOS>BOND
     1     1     2 ar  
     2     1     3 ar  
     3     1    12 1   
     4     2     4 ar  
     5     2    13 1   
     6     3     5 ar  
     7     3    14 1   
     8     4     6 ar  
     9     4    15 1   
    10     5     6 ar  
    11     5     9 1   
    12     6    11 1   
    13     7     8 1   
    14     7     9 2   
    15     7    10 1   
    16     8    11 1   
    17     8    16 1   
    18     8    17 1   
    19    10    18 1   
    20    10    19 1   
@<TRIPOS>SUBSTRUCTURE
     1 4JT         1 TEMP              0 ****  ****    0 ROOT
