@<TRIPOS>MOLECULE
4JU
   23    23     1     0     0
SMALL
No Charge or Current Charge


@<TRIPOS>ATOM
      1 N1           2.8810    -0.0800     0.0270 n8         1 4JU      -0.986200
      2 C5           1.4590    -0.0500    -0.3650 c6         1 4JU       0.152500
      3 C6           0.7290    -1.3160     0.1520 c6         1 4JU      -0.088900
      4 C4           0.7790     1.2360     0.1690 c6         1 4JU      -0.088900
      5 C3          -0.7250     1.2680    -0.2050 c6         1 4JU      -0.068900
      6 C2          -1.4650     0.0020     0.3060 c6         1 4JU      -0.063700
      7 C1          -2.9700     0.0330    -0.0710 c3         1 4JU      -0.086100
      8 C7          -0.7740    -1.2860    -0.2220 c6         1 4JU      -0.068900
      9 H1           3.3210     0.7990    -0.2670 hn         1 4JU       0.388500
     10 H2           2.9370    -0.0450     1.0510 hn         1 4JU       0.388500
     11 H4           1.4170    -0.0420    -1.4660 h1         1 4JU       0.058700
     12 H5           1.1940    -2.2170    -0.2720 hc         1 4JU       0.040700
     13 H6           0.8330    -1.3930     1.2430 hc         1 4JU       0.040700
     14 H7           0.8840     1.2940     1.2610 hc         1 4JU       0.040700
     15 H8           1.2760     2.1250    -0.2430 hc         1 4JU       0.040700
     16 H9          -1.1880     2.1700     0.2170 hc         1 4JU       0.039450
     17 H10         -0.8300     1.3470    -1.2970 hc         1 4JU       0.039450
     18 H11         -1.4240    -0.0060     1.4050 hc         1 4JU       0.044700
     19 H12         -3.4960    -0.8440     0.3260 hc         1 4JU       0.032700
     20 H13         -3.4610     0.9250     0.3380 hc         1 4JU       0.032700
     21 H14         -3.1100     0.0430    -1.1580 hc         1 4JU       0.032700
     22 H15         -0.8820    -1.3460    -1.3150 hc         1 4JU       0.039450
     23 H16         -1.2720    -2.1750     0.1890 hc         1 4JU       0.039450
@<TRIPOS>BOND
     1     1     2 1   
     2     1     9 1   
     3     1    10 1   
     4     2     3 1   
     5     2     4 1   
     6     2    11 1   
     7     3     8 1   
     8     3    12 1   
     9     3    13 1   
    10     4     5 1   
    11     4    14 1   
    12     4    15 1   
    13     5     6 1   
    14     5    16 1   
    15     5    17 1   
    16     6     7 1   
    17     6     8 1   
    18     6    18 1   
    19     7    19 1   
    20     7    20 1   
    21     7    21 1   
    22     8    22 1   
    23     8    23 1   
@<TRIPOS>SUBSTRUCTURE
     1 4JU         1 TEMP              0 ****  ****    0 ROOT
