@<TRIPOS>MOLECULE
4JU
   23    23     1     0     0
SMALL
abcg2


@<TRIPOS>ATOM
      1 N1           2.8590    -0.1140     0.0040 n8         1 4JU      -0.986200
      2 C5           1.4440    -0.0300    -0.3370 c6         1 4JU       0.152500
      3 C6           0.7170    -1.2750     0.1580 c6         1 4JU      -0.088900
      4 C4           0.7450     1.2290     0.1790 c6         1 4JU      -0.088900
      5 C3          -0.7360     1.2520    -0.1860 c6         1 4JU      -0.068900
      6 C2          -1.4660     0.0060     0.3100 c6         1 4JU      -0.063700
      7 C1          -2.9360     0.0240    -0.0870 c3         1 4JU      -0.086100
      8 C7          -0.7640    -1.2510    -0.2030 c6         1 4JU      -0.068900
      9 H1           3.3360     0.7130    -0.3370 hn         1 4JU       0.388500
     10 H2           2.9550    -0.0800     1.0140 hn         1 4JU       0.388500
     11 H4           1.3770    -0.0220    -1.4330 h1         1 4JU       0.058700
     12 H5           1.1940    -2.1660    -0.2580 hc         1 4JU       0.040700
     13 H6           0.8260    -1.3430     1.2480 hc         1 4JU       0.040700
     14 H7           0.8550     1.2720     1.2700 hc         1 4JU       0.040700
     15 H8           1.2460     2.1160    -0.2190 hc         1 4JU       0.040700
     16 H9          -1.2100     2.1490     0.2250 hc         1 4JU       0.039450
     17 H10         -0.8430     1.3210    -1.2750 hc         1 4JU       0.039450
     18 H11         -1.4010    -0.0030     1.4060 hc         1 4JU       0.044700
     19 H12         -3.4630    -0.8540     0.2920 hc         1 4JU       0.032700
     20 H13         -3.4430     0.9100     0.3010 hc         1 4JU       0.032700
     21 H14         -3.0450     0.0310    -1.1740 hc         1 4JU       0.032700
     22 H15         -0.8740    -1.3020    -1.2930 hc         1 4JU       0.039450
     23 H16         -1.2590    -2.1410     0.1960 hc         1 4JU       0.039450
@<TRIPOS>BOND
     1     1     2 1   
     2     1     9 1   
     3     1    10 1   
     4     2     3 1   
     5     2     4 1   
     6     2    11 1   
     7     3     8 1   
     8     3    12 1   
     9     3    13 1   
    10     4     5 1   
    11     4    14 1   
    12     4    15 1   
    13     5     6 1   
    14     5    16 1   
    15     5    17 1   
    16     6     7 1   
    17     6     8 1   
    18     6    18 1   
    19     7    19 1   
    20     7    20 1   
    21     7    21 1   
    22     8    22 1   
    23     8    23 1   
@<TRIPOS>SUBSTRUCTURE
     1 4JU         1 TEMP              0 ****  ****    0 ROOT
