@<TRIPOS>MOLECULE
4JV
   37    39     1     0     0
SMALL
bcc


@<TRIPOS>ATOM
      1 C11          2.4730    -2.9470    -0.0030 ca         1 4JV      -0.052000
      2 C18         -4.5040     0.3960    -1.1730 ca         1 4JV      -0.135000
      3 C19         -4.4690     0.4210     1.2160 ca         1 4JV      -0.135000
      4 C16         -3.3730    -0.4060    -1.1820 ca         1 4JV      -0.100500
      5 C17         -3.3370    -0.3810     1.2090 ca         1 4JV      -0.100500
      6 C5           3.4980    -2.0410     0.0090 ca         1 4JV      -0.243300
      7 C8           1.1310    -2.5420    -0.0060 ca         1 4JV      -0.277000
      8 C1           1.8680    -0.2250     0.0130 ca         1 4JV      -0.381600
      9 C20         -5.0720     0.8230     0.0260 ca         1 4JV      -0.059300
     10 C15         -2.7770    -0.8060     0.0090 ca         1 4JV      -0.112300
     11 C2           3.2170    -0.6570     0.0180 ca         1 4JV       0.527600
     12 C3           0.8300    -1.1950     0.0020 ca         1 4JV       0.209100
     13 C4           1.6870     1.2090     0.0180 ca         1 4JV       0.788200
     14 C12          3.9570     1.4860     0.0430 ca         1 4JV       0.958900
     15 C13         -1.5300    -1.6330     0.0000 c3         1 4JV       0.196700
     16 N6           4.2570     0.2040     0.0310 nb         1 4JV      -0.832000
     17 N9           2.7260     2.0230     0.0330 nb         1 4JV      -0.892000
     18 N10          0.4850     1.7890     0.0060 nv         1 4JV      -0.960500
     19 N14          4.9780     2.3710     0.1020 nv         1 4JV      -0.950500
     20 O7          -0.4300    -0.7240    -0.0010 os         1 4JV      -0.353900
     21 H1           2.6920    -4.0070    -0.0090 ha         1 4JV       0.128000
     22 H2          -4.9520     0.6940    -2.1140 ha         1 4JV       0.133000
     23 H3          -4.8890     0.7400     2.1630 ha         1 4JV       0.133000
     24 H4          -2.9500    -0.7230    -2.1290 ha         1 4JV       0.135000
     25 H5          -2.8880    -0.6780     2.1490 ha         1 4JV       0.135000
     26 H6           4.5320    -2.3590     0.0110 ha         1 4JV       0.150000
     27 H7           0.3570    -3.2940    -0.0150 ha         1 4JV       0.134000
     28 H8          -7.2090     1.0480     0.0160 hc         1 4JV       0.045033
     29 H9          -6.3650     2.2900     0.9280 hc         1 4JV       0.045033
     30 H10         -6.3540     2.3230    -0.8370 hc         1 4JV       0.045033
     31 H11         -1.4810    -2.2770     0.8830 h1         1 4JV       0.047700
     32 H12         -1.4900    -2.2700    -0.8890 h1         1 4JV       0.047700
     33 H13         -0.3660     1.2560    -0.0050 hn         1 4JV       0.454800
     34 H14          0.4370     2.7930     0.0120 hn         1 4JV       0.454800
     35 H15          4.7880     3.3370    -0.1030 hn         1 4JV       0.433800
     36 H16          5.9070     2.0420    -0.0910 hn         1 4JV       0.433800
     37 C21         -6.3110     1.6690     0.0340 c3         1 4JV      -0.050800
@<TRIPOS>BOND
     1     1     6 ar  
     2     1     7 ar  
     3     1    21 1   
     4     2     4 ar  
     5     2     9 ar  
     6     2    22 1   
     7     3     5 ar  
     8     3     9 ar  
     9     3    23 1   
    10     4    10 ar  
    11     4    24 1   
    12     5    10 ar  
    13     5    25 1   
    14     6    11 ar  
    15     6    26 1   
    16     7    12 ar  
    17     7    27 1   
    18     8    11 ar  
    19     8    12 ar  
    20     8    13 ar  
    21     9    37 1   
    22    10    15 1   
    23    11    16 ar  
    24    12    20 1   
    25    13    17 ar  
    26    13    18 1   
    27    14    16 ar  
    28    14    17 ar  
    29    14    19 1   
    30    15    20 1   
    31    15    31 1   
    32    15    32 1   
    33    18    33 1   
    34    18    34 1   
    35    19    35 1   
    36    19    36 1   
    37    28    37 1   
    38    29    37 1   
    39    30    37 1   
@<TRIPOS>SUBSTRUCTURE
     1 4JV         1 TEMP              0 ****  ****    0 ROOT
