@<TRIPOS>MOLECULE
4JV
   37    39     1     0     0
SMALL
No Charge or Current Charge


@<TRIPOS>ATOM
      1 C11          2.5100    -2.9780     0.0230 ca         1 4JV      -0.034000
      2 C18         -4.5760     0.4260    -1.1980 ca         1 4JV      -0.117000
      3 C19         -4.5880     0.3900     1.2310 ca         1 4JV      -0.117000
      4 C16         -3.4050    -0.3500    -1.2050 ca         1 4JV      -0.082500
      5 C17         -3.4160    -0.3860     1.2260 ca         1 4JV      -0.082500
      6 C5           3.5580    -2.0500     0.0330 ca         1 4JV      -0.160000
      7 C8           1.1830    -2.5310     0.0060 ca         1 4JV      -0.259000
      8 C1           1.9560    -0.2100    -0.0050 ca         1 4JV      -0.251000
      9 C20         -5.1740     0.8020     0.0190 ca         1 4JV      -0.059300
     10 C15         -2.8180    -0.7620     0.0070 ca         1 4JV      -0.112300
     11 C2           3.2980    -0.6710     0.0220 ca         1 4JV       0.134000
     12 C3           0.8890    -1.1490    -0.0050 ca         1 4JV       0.209100
     13 C4           1.7860     1.1960    -0.0230 ca         1 4JV       0.459900
     14 C12          4.0180     1.5000     0.0320 ca         1 4JV       0.432900
     15 C13         -1.5480    -1.6010     0.0000 c3         1 4JV       0.219900
     16 N6           4.3260     0.2000     0.0390 nb         1 4JV      -0.306000
     17 N9           2.8090     2.0520     0.0000 nb         1 4JV      -0.366000
     18 N10          0.5860     1.8170    -0.0740 nv         1 4JV      -1.070900
     19 N14          5.0560     2.3600     0.0490 nv         1 4JV      -1.060900
     20 O7          -0.4220    -0.7070    -0.0020 os         1 4JV      -0.377100
     21 H1           2.7280    -4.0450     0.0320 ha         1 4JV       0.110000
     22 H2          -5.0200     0.7360    -2.1420 ha         1 4JV       0.115000
     23 H3          -5.0400     0.6720     2.1790 ha         1 4JV       0.115000
     24 H4          -2.9510    -0.6310    -2.1540 ha         1 4JV       0.117000
     25 H5          -2.9720    -0.6950     2.1700 ha         1 4JV       0.117000
     26 H6           4.5860    -2.4050     0.0510 ha         1 4JV       0.132000
     27 H7           0.3950    -3.2780     0.0050 ha         1 4JV       0.116000
     28 H8          -7.3330     0.9990     0.0120 hc         1 4JV       0.045033
     29 H9          -6.5000     2.2730     0.9190 hc         1 4JV       0.045033
     30 H10         -6.4920     2.2990    -0.8480 hc         1 4JV       0.045033
     31 H11         -1.5310    -2.2470     0.8880 h1         1 4JV       0.047700
     32 H12         -1.5370    -2.2420    -0.8910 h1         1 4JV       0.047700
     33 H13         -0.2280     1.2210     0.0700 hn         1 4JV       0.510000
     34 H14          0.5250     2.7770     0.2490 hn         1 4JV       0.510000
     35 H15          4.8730     3.3290    -0.1970 hn         1 4JV       0.489000
     36 H16          5.9820     2.0010    -0.1690 hn         1 4JV       0.489000
     37 C21         -6.4430     1.6390     0.0260 c3         1 4JV      -0.050800
@<TRIPOS>BOND
     1     1     6 ar  
     2     1     7 ar  
     3     1    21 1   
     4     2     4 ar  
     5     2     9 ar  
     6     2    22 1   
     7     3     5 ar  
     8     3     9 ar  
     9     3    23 1   
    10     4    10 ar  
    11     4    24 1   
    12     5    10 ar  
    13     5    25 1   
    14     6    11 ar  
    15     6    26 1   
    16     7    12 ar  
    17     7    27 1   
    18     8    11 ar  
    19     8    12 ar  
    20     8    13 ar  
    21     9    37 1   
    22    10    15 1   
    23    11    16 ar  
    24    12    20 1   
    25    13    17 ar  
    26    13    18 1   
    27    14    16 ar  
    28    14    17 ar  
    29    14    19 1   
    30    15    20 1   
    31    15    31 1   
    32    15    32 1   
    33    18    33 1   
    34    18    34 1   
    35    19    35 1   
    36    19    36 1   
    37    28    37 1   
    38    29    37 1   
    39    30    37 1   
@<TRIPOS>SUBSTRUCTURE
     1 4JV         1 TEMP              0 ****  ****    0 ROOT
