@<TRIPOS>MOLECULE
4JW
   35    37     1     0     0
SMALL
abcg2


@<TRIPOS>ATOM
      1 C20         -9.6650   -14.4290   -61.2730 ca         1 4JW      -0.107000
      2 C18        -10.8960   -15.0560   -61.4420 ca         1 4JW      -0.102000
      3 C19         -9.3290   -13.8810   -60.0390 ca         1 4JW      -0.102000
      4 C17        -13.1080   -19.8590   -53.9230 ca         1 4JW      -0.112000
      5 C16        -12.1470   -19.1550   -53.2000 ca         1 4JW      -0.107000
      6 C15        -11.7860   -15.1440   -60.3790 ca         1 4JW      -0.115500
      7 C14        -10.2220   -13.9570   -58.9760 ca         1 4JW      -0.115500
      8 C13        -13.2770   -19.6050   -55.2790 ca         1 4JW      -0.101000
      9 C12        -11.3710   -18.1900   -53.8310 ca         1 4JW      -0.102000
     10 C10        -11.4430   -14.6030   -59.1440 ca         1 4JW      -0.062000
     11 C8         -12.4970   -18.6470   -55.9140 ca         1 4JW       0.058100
     12 C6         -11.5490   -17.9240   -55.1830 ca         1 4JW       0.074100
     13 C1         -12.2470   -15.4760   -56.9860 c          1 4JW       0.592100
     14 C7         -11.5930   -17.7580   -57.8810 c6         1 4JW       0.131600
     15 C2         -11.1460   -16.5470   -57.0710 c6         1 4JW       0.059300
     16 C11        -13.4600   -13.6720   -58.0980 c3         1 4JW       0.090300
     17 N4         -12.3800   -14.6580   -58.0580 n          1 4JW      -0.250400
     18 O9         -12.9800   -15.4190   -56.0040 o          1 4JW      -0.566100
     19 O5         -12.6970   -18.4080   -57.2490 os         1 4JW      -0.331100
     20 O3         -10.7660   -16.9580   -55.7610 os         1 4JW      -0.320100
     21 H1          -8.9710   -14.3660   -62.1010 ha         1 4JW       0.119000
     22 H2         -11.1610   -15.4830   -62.4010 ha         1 4JW       0.120500
     23 H3          -8.3740   -13.3890   -59.9030 ha         1 4JW       0.120500
     24 H5         -12.0030   -19.3520   -52.1460 ha         1 4JW       0.116000
     25 H6         -12.7440   -15.6350   -60.4980 ha         1 4JW       0.127000
     26 H7          -9.9760   -13.5270   -58.0130 ha         1 4JW       0.127000
     27 H8         -14.0110   -20.1440   -55.8650 ha         1 4JW       0.125000
     28 H9         -10.6290   -17.6210   -53.2850 ha         1 4JW       0.127000
     29 H10        -10.7550   -18.4550   -57.9630 h1         1 4JW       0.071200
     30 H11        -11.9250   -17.4730   -58.8750 h1         1 4JW       0.071200
     31 H12        -10.2470   -16.1360   -57.5220 h1         1 4JW       0.099700
     32 H13        -14.1530   -13.8740   -57.2870 h1         1 4JW       0.049700
     33 H14        -13.0530   -12.6640   -57.9890 h1         1 4JW       0.049700
     34 H15        -13.9800   -13.7420   -59.0540 h1         1 4JW       0.049700
     35 H4         -13.7190   -20.6070   -53.4370 ha         1 4JW       0.116000
@<TRIPOS>BOND
     1     1     2 ar  
     2     1     3 ar  
     3     1    21 1   
     4     2     6 ar  
     5     2    22 1   
     6     3     7 ar  
     7     3    23 1   
     8     4     5 ar  
     9     4     8 ar  
    10     4    35 1   
    11     5     9 ar  
    12     5    24 1   
    13     6    10 ar  
    14     6    25 1   
    15     7    10 ar  
    16     7    26 1   
    17     8    11 ar  
    18     8    27 1   
    19     9    12 ar  
    20     9    28 1   
    21    10    17 1   
    22    11    12 ar  
    23    11    19 1   
    24    12    20 1   
    25    13    15 1   
    26    13    17 1   
    27    13    18 2   
    28    14    15 1   
    29    14    19 1   
    30    14    29 1   
    31    14    30 1   
    32    15    20 1   
    33    15    31 1   
    34    16    17 1   
    35    16    32 1   
    36    16    33 1   
    37    16    34 1   
@<TRIPOS>SUBSTRUCTURE
     1 4JW         1 TEMP              0 ****  ****    0 ROOT
