@<TRIPOS>MOLECULE
4JW
   35    37     1     0     0
SMALL
No Charge or Current Charge


@<TRIPOS>ATOM
      1 C20         -9.9950   -14.8380   -61.5010 ca         1 4JW      -0.107000
      2 C18        -11.3640   -15.1460   -61.5200 ca         1 4JW      -0.102000
      3 C19         -9.3910   -14.4190   -60.3050 ca         1 4JW      -0.102000
      4 C17        -13.3240   -19.8540   -54.3540 ca         1 4JW      -0.112000
      5 C16        -12.5570   -19.2350   -53.3500 ca         1 4JW      -0.107000
      6 C15        -12.1310   -15.0180   -60.3490 ca         1 4JW      -0.115500
      7 C14        -10.1590   -14.2940   -59.1340 ca         1 4JW      -0.115500
      8 C13        -13.1710   -19.4710   -55.6990 ca         1 4JW      -0.101000
      9 C12        -11.6400   -18.2220   -53.6860 ca         1 4JW      -0.102000
     10 C10        -11.5490   -14.5400   -59.1550 ca         1 4JW      -0.062000
     11 C8         -12.2490   -18.4680   -56.0410 ca         1 4JW       0.058100
     12 C6         -11.4910   -17.8280   -55.0260 ca         1 4JW       0.074100
     13 C1         -11.8380   -15.0920   -56.6880 c          1 4JW       0.592100
     14 C7         -10.9270   -17.3300   -57.7080 c6         1 4JW       0.131600
     15 C2         -10.7380   -16.2070   -56.6570 c6         1 4JW       0.059300
     16 C11        -13.6470   -13.9400   -57.9440 c3         1 4JW       0.090300
     17 N4         -12.3120   -14.5850   -57.9330 n          1 4JW      -0.250400
     18 O9         -12.3250   -14.6810   -55.6370 o          1 4JW      -0.566100
     19 O5         -12.0890   -18.1170   -57.3680 os         1 4JW      -0.331100
     20 O3         -10.6070   -16.8150   -55.3420 os         1 4JW      -0.320100
     21 H1          -9.4000   -14.9390   -62.4060 ha         1 4JW       0.119000
     22 H2         -11.8290   -15.4970   -62.4380 ha         1 4JW       0.120500
     23 H3          -8.3270   -14.1950   -60.2830 ha         1 4JW       0.120500
     24 H5         -12.6760   -19.5360   -52.3120 ha         1 4JW       0.116000
     25 H6         -13.1810   -15.3010   -60.3720 ha         1 4JW       0.127000
     26 H7          -9.6730   -13.9590   -58.2210 ha         1 4JW       0.127000
     27 H8         -13.7570   -19.9560   -56.4760 ha         1 4JW       0.125000
     28 H9         -11.0540   -17.7360   -52.9100 ha         1 4JW       0.127000
     29 H10        -10.0450   -17.9870   -57.6890 h1         1 4JW       0.071200
     30 H11        -11.0280   -16.9510   -58.7310 h1         1 4JW       0.071200
     31 H12         -9.7950   -15.6920   -56.8710 h1         1 4JW       0.099700
     32 H13        -14.4160   -14.6820   -57.6950 h1         1 4JW       0.049700
     33 H14        -13.6770   -13.1270   -57.2070 h1         1 4JW       0.049700
     34 H15        -13.8650   -13.5170   -58.9320 h1         1 4JW       0.049700
     35 H4         -14.0350   -20.6350   -54.0900 ha         1 4JW       0.116000
@<TRIPOS>BOND
     1     1     2 ar  
     2     1     3 ar  
     3     1    21 1   
     4     2     6 ar  
     5     2    22 1   
     6     3     7 ar  
     7     3    23 1   
     8     4     5 ar  
     9     4     8 ar  
    10     4    35 1   
    11     5     9 ar  
    12     5    24 1   
    13     6    10 ar  
    14     6    25 1   
    15     7    10 ar  
    16     7    26 1   
    17     8    11 ar  
    18     8    27 1   
    19     9    12 ar  
    20     9    28 1   
    21    10    17 1   
    22    11    12 ar  
    23    11    19 1   
    24    12    20 1   
    25    13    15 1   
    26    13    17 1   
    27    13    18 2   
    28    14    15 1   
    29    14    19 1   
    30    14    29 1   
    31    14    30 1   
    32    15    20 1   
    33    15    31 1   
    34    16    17 1   
    35    16    32 1   
    36    16    33 1   
    37    16    34 1   
@<TRIPOS>SUBSTRUCTURE
     1 4JW         1 TEMP              0 ****  ****    0 ROOT
