@<TRIPOS>MOLECULE
4JX
   49    53     1     0     0
SMALL
No Charge or Current Charge


@<TRIPOS>ATOM
      1 C1           5.3520     2.9760     0.2400 c3         1 4JX      -0.153400
      2 C2           4.6950     1.6310     0.1200 cc         1 4JX       0.404300
      3 C3           5.5700     0.4760     0.1630 cc         1 4JX      -0.227000
      4 C8           1.6950    -0.1420    -0.2550 cc         1 4JX      -0.366800
      5 C9           1.7810    -1.5580    -0.3020 cc         1 4JX       0.410500
      6 C11          0.4750     0.6630    -0.3450 c          1 4JX       0.653300
      7 C14         -2.0340     0.4500    -0.5720 c6         1 4JX       0.124700
      8 C15         -2.9990    -0.5650    -1.2650 c6         1 4JX      -0.073200
      9 C16         -3.1440    -1.8640    -0.4110 c6         1 4JX      -0.070900
     10 C19         -2.6040     0.7840     0.8440 c6         1 4JX      -0.073200
     11 C20         -4.0070     1.4430     0.6870 c6         1 4JX      -0.079400
     12 C21         -4.9810     0.4580    -0.0250 c6         1 4JX       0.179000
     13 C22         -5.1080    -0.8390     0.8290 c6         1 4JX      -0.098400
     14 C4           5.1110    -0.8330     0.0640 cd         1 4JX       0.003700
     15 N5           3.7230    -0.8870    -0.0790 na         1 4JX       0.105900
     16 C6           2.9760     0.2780    -0.1080 cd         1 4JX       0.445500
     17 N7           3.3710     1.5960    -0.0160 nd         1 4JX      -0.623000
     18 N10          3.0070    -2.0620    -0.1980 nd         1 4JX      -0.583100
     19 O12          0.4380     1.8820    -0.2970 o          1 4JX      -0.591100
     20 N13         -0.6680    -0.0860    -0.4940 ns         1 4JX      -0.509900
     21 C17         -3.7100    -1.5060     0.9920 c6         1 4JX      -0.056700
     22 C18         -2.7450    -0.5130     1.7000 c6         1 4JX      -0.070900
     23 C23         -4.4020     0.0940    -1.4260 c6         1 4JX      -0.079400
     24 O24         -6.2630     1.0700    -0.1720 oh         1 4JX      -0.653000
     25 C25          5.9660    -2.0770     0.1020 c3         1 4JX      -0.054800
     26 H12          6.0700     3.1280    -0.5730 hc         1 4JX       0.061367
     27 H13          4.6200     3.7910     0.1980 hc         1 4JX       0.061367
     28 H11          5.8910     3.0580     1.1910 hc         1 4JX       0.061367
     29 H3           6.6320     0.6600     0.2780 ha         1 4JX       0.140000
     30 H9           0.9610    -2.2560    -0.4120 h4         1 4JX       0.042800
     31 H14         -2.0010     1.3720    -1.1730 h1         1 4JX       0.075700
     32 H15         -2.6060    -0.8210    -2.2590 hc         1 4JX       0.066700
     33 H162        -3.8140    -2.5730    -0.9170 hc         1 4JX       0.040200
     34 H161        -2.1790    -2.3770    -0.3120 hc         1 4JX       0.040200
     35 H19         -1.9320     1.4870     1.3540 hc         1 4JX       0.066700
     36 H201        -4.4040     1.7230     1.6730 hc         1 4JX       0.052700
     37 H202        -3.9220     2.3760     0.1120 hc         1 4JX       0.052700
     38 H222        -5.5290    -0.6050     1.8170 hc         1 4JX       0.045200
     39 H221        -5.8050    -1.5440     0.3550 hc         1 4JX       0.045200
     40 H1          -0.5570    -1.0880    -0.5300 hn         1 4JX       0.306500
     41 H17         -3.8060    -2.4200     1.5950 hc         1 4JX       0.050700
     42 H182        -1.7640    -0.9810     1.8570 hc         1 4JX       0.040200
     43 H181        -3.1270    -0.2640     2.7000 hc         1 4JX       0.040200
     44 H232        -4.3250     0.9940    -2.0520 hc         1 4JX       0.052700
     45 H231        -5.0790    -0.5920    -1.9540 hc         1 4JX       0.052700
     46 H24         -6.8540     0.3910    -0.5630 ho         1 4JX       0.439000
     47 H251         7.0270    -1.8290     0.2190 hc         1 4JX       0.067700
     48 H252         5.6810    -2.7250     0.9390 hc         1 4JX       0.067700
     49 H253         5.8590    -2.6550    -0.8230 hc         1 4JX       0.067700
@<TRIPOS>BOND
     1     1     2 1   
     2     1    26 1   
     3     1    27 1   
     4     1    28 1   
     5     2     3 1   
     6     2    17 2   
     7     3    14 2   
     8     3    29 1   
     9     4     5 1   
    10     4     6 1   
    11     4    16 2   
    12     5    18 2   
    13     5    30 1   
    14     6    19 2   
    15     6    20 1   
    16     7     8 1   
    17     7    10 1   
    18     7    20 1   
    19     7    31 1   
    20     8     9 1   
    21     8    23 1   
    22     8    32 1   
    23     9    21 1   
    24     9    33 1   
    25     9    34 1   
    26    10    11 1   
    27    10    22 1   
    28    10    35 1   
    29    11    12 1   
    30    11    36 1   
    31    11    37 1   
    32    12    13 1   
    33    12    23 1   
    34    12    24 1   
    35    13    21 1   
    36    13    38 1   
    37    13    39 1   
    38    14    15 1   
    39    14    25 1   
    40    15    16 1   
    41    15    18 1   
    42    16    17 1   
    43    20    40 1   
    44    21    22 1   
    45    21    41 1   
    46    22    42 1   
    47    22    43 1   
    48    23    44 1   
    49    23    45 1   
    50    24    46 1   
    51    25    47 1   
    52    25    48 1   
    53    25    49 1   
@<TRIPOS>SUBSTRUCTURE
     1 4JX         1 TEMP              0 ****  ****    0 ROOT
