@<TRIPOS>MOLECULE
4JX
   49    53     1     0     0
SMALL
abcg2


@<TRIPOS>ATOM
      1 C1           5.2430     3.0120     0.3950 c3         1 4JX      -0.153400
      2 C2           4.7110     1.6320     0.1890 cc         1 4JX       0.404300
      3 C3           5.6140     0.5380     0.1640 cc         1 4JX      -0.227000
      4 C8           1.6750    -0.2910    -0.3110 cc         1 4JX      -0.366800
      5 C9           1.8920    -1.6740    -0.4290 cc         1 4JX       0.410500
      6 C11          0.4220     0.4730    -0.3640 c          1 4JX       0.653300
      7 C14         -2.0300     0.3200    -0.5290 c6         1 4JX       0.124700
      8 C15         -3.0040    -0.6690    -1.1830 c6         1 4JX      -0.073200
      9 C16         -3.2340    -1.8890    -0.2850 c6         1 4JX      -0.070900
     10 C19         -2.5950     0.7450     0.8370 c6         1 4JX      -0.073200
     11 C20         -3.9300     1.4580     0.6120 c6         1 4JX      -0.079400
     12 C21         -4.9190     0.5120    -0.0630 c6         1 4JX       0.179000
     13 C22         -5.1300    -0.7140     0.8320 c6         1 4JX      -0.098400
     14 C4           5.1480    -0.7300    -0.0090 cd         1 4JX       0.003700
     15 N5           3.8030    -0.8530    -0.1540 na         1 4JX       0.105900
     16 C6           2.9570     0.2350    -0.1300 cd         1 4JX       0.445500
     17 N7           3.4170     1.4780     0.0440 nd         1 4JX      -0.623000
     18 N10          3.1610    -2.0130    -0.3360 nd         1 4JX      -0.583100
     19 O12          0.4100     1.6980    -0.3460 o          1 4JX      -0.591100
     20 N13         -0.7060    -0.2610    -0.4420 ns         1 4JX      -0.509900
     21 C17         -3.7980    -1.4350     1.0620 c6         1 4JX      -0.056700
     22 C18         -2.8080    -0.4780     1.7280 c6         1 4JX      -0.070900
     23 C23         -4.3360     0.0510    -1.4020 c6         1 4JX      -0.079400
     24 O24         -6.1250     1.2280    -0.2500 oh         1 4JX      -0.653000
     25 C25          5.9790    -1.9570    -0.0490 c3         1 4JX      -0.054800
     26 H12          6.0160     3.2430    -0.3390 hc         1 4JX       0.061367
     27 H13          4.4490     3.7510     0.3160 hc         1 4JX       0.061367
     28 H11          5.7050     3.0980     1.3800 hc         1 4JX       0.061367
     29 H3           6.6750     0.7030     0.2830 ha         1 4JX       0.140000
     30 H9           1.1620    -2.4550    -0.5900 h4         1 4JX       0.042800
     31 H14         -1.9590     1.2050    -1.1680 h1         1 4JX       0.075700
     32 H15         -2.5980    -0.9840    -2.1490 hc         1 4JX       0.066700
     33 H162        -3.9320    -2.5720    -0.7790 hc         1 4JX       0.040200
     34 H161        -2.3120    -2.4610    -0.1360 hc         1 4JX       0.040200
     35 H19         -1.8960     1.4370     1.3140 hc         1 4JX       0.066700
     36 H201        -4.3360     1.7960     1.5710 hc         1 4JX       0.052700
     37 H202        -3.7850     2.3510    -0.0060 hc         1 4JX       0.052700
     38 H222        -5.5670    -0.4030     1.7870 hc         1 4JX       0.045200
     39 H221        -5.8450    -1.3960     0.3580 hc         1 4JX       0.045200
     40 H1          -0.6370    -1.2640    -0.4270 hn         1 4JX       0.306500
     41 H17         -3.9610    -2.3040     1.7040 hc         1 4JX       0.050700
     42 H182        -1.8570    -0.9850     1.9190 hc         1 4JX       0.040200
     43 H181        -3.1870    -0.1600     2.7040 hc         1 4JX       0.040200
     44 H232        -4.1990     0.9110    -2.0660 hc         1 4JX       0.052700
     45 H231        -5.0400    -0.6270    -1.8990 hc         1 4JX       0.052700
     46 H24         -6.7550     0.6460    -0.6890 ho         1 4JX       0.439000
     47 H251         7.0290    -1.6990     0.0580 hc         1 4JX       0.067700
     48 H252         5.7040    -2.6400     0.7560 hc         1 4JX       0.067700
     49 H253         5.8420    -2.4930    -0.9880 hc         1 4JX       0.067700
@<TRIPOS>BOND
     1     1     2 1   
     2     1    26 1   
     3     1    27 1   
     4     1    28 1   
     5     2     3 1   
     6     2    17 2   
     7     3    14 2   
     8     3    29 1   
     9     4     5 1   
    10     4     6 1   
    11     4    16 2   
    12     5    18 2   
    13     5    30 1   
    14     6    19 2   
    15     6    20 1   
    16     7     8 1   
    17     7    10 1   
    18     7    20 1   
    19     7    31 1   
    20     8     9 1   
    21     8    23 1   
    22     8    32 1   
    23     9    21 1   
    24     9    33 1   
    25     9    34 1   
    26    10    11 1   
    27    10    22 1   
    28    10    35 1   
    29    11    12 1   
    30    11    36 1   
    31    11    37 1   
    32    12    13 1   
    33    12    23 1   
    34    12    24 1   
    35    13    21 1   
    36    13    38 1   
    37    13    39 1   
    38    14    15 1   
    39    14    25 1   
    40    15    16 1   
    41    15    18 1   
    42    16    17 1   
    43    20    40 1   
    44    21    22 1   
    45    21    41 1   
    46    22    42 1   
    47    22    43 1   
    48    23    44 1   
    49    23    45 1   
    50    24    46 1   
    51    25    47 1   
    52    25    48 1   
    53    25    49 1   
@<TRIPOS>SUBSTRUCTURE
     1 4JX         1 TEMP              0 ****  ****    0 ROOT
