@<TRIPOS>MOLECULE
4JZ
   60    63     1     0     0
SMALL
No Charge or Current Charge


@<TRIPOS>ATOM
      1 C4          -4.7270    -5.9740     0.9000 c3         1 4JZ      -0.087100
      2 C7          -1.3230     1.3510    -1.3200 ca         1 4JZ      -0.102500
      3 C6           6.6950     1.5640     0.1180 ca         1 4JZ      -0.114000
      4 C9          -1.3080    -0.0500    -1.2080 ca         1 4JZ      -0.101000
      5 C13         -2.7630    -3.7270     1.1560 cc         1 4JZ      -0.421600
      6 C20         -3.5150    -3.9290     0.0280 cd         1 4JZ       0.126800
      7 C21          0.5080     1.0030     1.7250 cc         1 4JZ       0.033600
      8 C8          -3.2070     1.4510     0.2150 ca         1 4JZ      -0.102500
      9 C18          5.6130     2.4090    -0.1810 ca         1 4JZ       0.099100
     10 C16         -2.2680     2.1080    -0.6030 ca         1 4JZ      -0.070300
     11 C19          2.0390     2.4080     0.9000 cd         1 4JZ       0.254300
     12 C1          -2.2690     3.6250    -0.7160 c3         1 4JZ      -0.048800
     13 C2          -4.0630    -5.8220    -1.5290 c3         1 4JZ      -0.087100
     14 C3          -5.9050    -4.3390    -0.6170 c3         1 4JZ      -0.087100
     15 C5           7.9430     1.8380    -0.4710 ca         1 4JZ      -0.130000
     16 C10         -3.1890     0.0490     0.3280 ca         1 4JZ      -0.101000
     17 C11          8.0690     2.9400    -1.3360 ca         1 4JZ       0.292900
     18 C12          1.6260     1.0590     0.9480 cd         1 4JZ      -0.225000
     19 C14          5.8330     3.4990    -1.0650 ca         1 4JZ       0.249900
     20 C15          3.2280     2.9560     0.1400 c3         1 4JZ       0.136300
     21 C17         -2.2310    -0.7060    -0.3750 ca         1 4JZ       0.274000
     22 C22         -1.9220    -2.6230     1.0270 cc         1 4JZ       0.787500
     23 C23         -0.1340    -1.4020     1.6570 c          1 4JZ       0.779500
     24 C24         -4.5420    -5.0070    -0.3000 c3         1 4JZ       0.001200
     25 N25          0.2960     2.3230     2.1060 na         1 4JZ      -0.048200
     26 N26          7.0360     3.7640    -1.6350 nb         1 4JZ      -0.641000
     27 N27          1.2430     3.2030     1.6000 nc         1 4JZ      -0.524800
     28 N28         -3.1340    -2.9110    -0.8530 na         1 4JZ      -0.516000
     29 N29         -0.2820    -0.0950     2.0330 ns         1 4JZ      -0.397100
     30 N30         -1.2100    -2.1940     2.0120 nf         1 4JZ      -0.827100
     31 N31         -2.1610    -2.0910    -0.2280 na         1 4JZ      -0.507200
     32 O32          0.8320    -1.8650     1.0780 o          1 4JZ      -0.639100
     33 O33          4.3880     2.1380     0.4000 os         1 4JZ      -0.330100
     34 H4          -5.0730    -5.4340     1.7900 hc         1 4JZ       0.044033
     35 H4A         -5.4680    -6.7490     0.6690 hc         1 4JZ       0.044033
     36 H4B         -3.7840    -6.4750     1.1490 hc         1 4JZ       0.044033
     37 H7          -0.5940     1.8490    -1.9560 ha         1 4JZ       0.118000
     38 H9          -0.5650    -0.6300    -1.7490 ha         1 4JZ       0.132000
     39 H13         -2.7940    -4.3120     2.0630 ha         1 4JZ       0.253000
     40 H8          -3.9480     2.0240     0.7690 ha         1 4JZ       0.118000
     41 H1          -2.7130     3.9460    -1.6650 hc         1 4JZ       0.046033
     42 H1A         -2.8390     4.0910     0.0960 hc         1 4JZ       0.046033
     43 H1B         -1.2480     4.0230    -0.6710 hc         1 4JZ       0.046033
     44 H2          -4.7730    -6.6230    -1.7700 hc         1 4JZ       0.044033
     45 H2A         -3.9640    -5.1840    -2.4140 hc         1 4JZ       0.044033
     46 H2B         -3.0870    -6.2820    -1.3320 hc         1 4JZ       0.044033
     47 H3          -6.2500    -3.7400     0.2340 hc         1 4JZ       0.044033
     48 H3A         -5.8280    -3.6760    -1.4870 hc         1 4JZ       0.044033
     49 H3B         -6.6710    -5.0930    -0.8360 hc         1 4JZ       0.044033
     50 H5           8.8040     1.2080    -0.2650 ha         1 4JZ       0.122000
     51 H10         -3.9100    -0.4530     0.9670 ha         1 4JZ       0.132000
     52 H11          9.0250     3.1710    -1.8040 h4         1 4JZ       0.018100
     53 H12          2.1140     0.2350     0.4420 ha         1 4JZ       0.173000
     54 H14          5.0300     4.1840    -1.3310 h4         1 4JZ       0.021100
     55 H15          2.9860     2.9540    -0.9310 h1         1 4JZ       0.050200
     56 H15A         3.4100     3.9920     0.4500 h1         1 4JZ       0.050200
     57 HN25        -0.4670     2.6540     2.6940 hn         1 4JZ       0.365000
     58 HN28        -3.3320    -2.8210    -1.8570 hn         1 4JZ       0.524000
     59 HN29        -1.1260     0.0550     2.5670 hn         1 4JZ       0.327500
     60 H6           6.5680     0.7190     0.7910 ha         1 4JZ       0.133000
@<TRIPOS>BOND
     1     1    24 1   
     2     1    34 1   
     3     1    35 1   
     4     1    36 1   
     5     2     4 ar  
     6     2    10 ar  
     7     2    37 1   
     8     3     9 ar  
     9     3    15 ar  
    10     3    60 1   
    11     4    21 ar  
    12     4    38 1   
    13     5     6 2   
    14     5    22 1   
    15     5    39 1   
    16     6    24 1   
    17     6    28 1   
    18     7    18 2   
    19     7    25 1   
    20     7    29 1   
    21     8    10 ar  
    22     8    16 ar  
    23     8    40 1   
    24     9    19 ar  
    25     9    33 1   
    26    10    12 1   
    27    11    18 1   
    28    11    20 1   
    29    11    27 2   
    30    12    41 1   
    31    12    42 1   
    32    12    43 1   
    33    13    24 1   
    34    13    44 1   
    35    13    45 1   
    36    13    46 1   
    37    14    24 1   
    38    14    47 1   
    39    14    48 1   
    40    14    49 1   
    41    15    17 ar  
    42    15    50 1   
    43    16    21 ar  
    44    16    51 1   
    45    17    26 ar  
    46    17    52 1   
    47    18    53 1   
    48    19    26 ar  
    49    19    54 1   
    50    20    33 1   
    51    20    55 1   
    52    20    56 1   
    53    21    31 1   
    54    22    30 2   
    55    22    31 1   
    56    23    29 1   
    57    23    30 1   
    58    23    32 2   
    59    25    27 1   
    60    25    57 1   
    61    28    31 1   
    62    28    58 1   
    63    29    59 1   
@<TRIPOS>SUBSTRUCTURE
     1 4JZ         1 TEMP              0 ****  ****    0 ROOT
