@<TRIPOS>MOLECULE
4JZ
   60    63     1     0     0
SMALL
bcc


@<TRIPOS>ATOM
      1 C4          -1.7620    -5.2690     0.0300 c3         1 4JZ      -0.087100
      2 C7          -5.2960     2.2430    -0.5840 ca         1 4JZ      -0.120500
      3 C6           7.3140    -0.2270     1.1400 ca         1 4JZ      -0.132000
      4 C9          -4.3900     1.2150    -0.7740 ca         1 4JZ      -0.119000
      5 C13         -1.8000    -2.3280    -0.1860 cc         1 4JZ      -0.371600
      6 C20         -2.9320    -3.0970    -0.1690 cd         1 4JZ       0.126800
      7 C21          1.5000     1.9620    -0.0770 cc         1 4JZ       0.084300
      8 C8          -6.3930     0.9920     1.1290 ca         1 4JZ      -0.120500
      9 C18          6.9030     0.8560     0.3650 ca         1 4JZ       0.033800
     10 C16         -6.3160     2.1510     0.3640 ca         1 4JZ      -0.070300
     11 C19          3.6610     2.3410    -0.2240 cd         1 4JZ       0.319600
     12 C1          -7.3080     3.2640     0.5300 c3         1 4JZ      -0.048800
     13 C2          -3.5770    -4.9550    -1.6590 c3         1 4JZ      -0.087100
     14 C3          -4.1310    -5.0520     0.7900 c3         1 4JZ      -0.087100
     15 C5           8.6340    -0.6270     1.0780 ca         1 4JZ      -0.213300
     16 C10         -5.4820    -0.0420     0.9650 ca         1 4JZ      -0.119000
     17 C11          9.5070     0.0640     0.2450 ca         1 4JZ       0.358200
     18 C12          2.6990     1.3170    -0.3200 cd         1 4JZ      -0.308300
     19 C14          7.8540     1.4870    -0.4360 ca         1 4JZ       0.315200
     20 C15          5.1290     2.2240    -0.4280 c3         1 4JZ       0.113100
     21 C17         -4.4820     0.0700     0.0080 ca         1 4JZ       0.135600
     22 C22         -2.2070    -0.9610    -0.1790 cc         1 4JZ       0.787500
     23 C23         -0.2480     0.2480    -0.1790 c          1 4JZ       0.846500
     24 C24         -3.1010    -4.5880    -0.2460 c3         1 4JZ       0.001200
     25 N25          1.8080     3.2580     0.1360 na         1 4JZ      -0.048600
     26 N26          9.1230     1.0950    -0.4900 nb         1 4JZ      -0.641000
     27 N27          3.1190     3.5070     0.0560 nc         1 4JZ      -0.524800
     28 N28         -4.0010    -2.2780    -0.0990 na         1 4JZ      -0.460800
     29 N29          0.1940     1.5520    -0.0300 ns         1 4JZ      -0.464100
     30 N30         -1.5960     0.2040    -0.1220 nf         1 4JZ      -0.827100
     31 N31         -3.5720    -0.9890    -0.1850 na         1 4JZ      -0.368800
     32 O32          0.5520    -0.6670    -0.3450 o          1 4JZ      -0.639100
     33 O33          5.6110     1.2160     0.4520 os         1 4JZ      -0.306900
     34 H4          -1.3730    -5.0070     1.0150 hc         1 4JZ       0.044033
     35 H4A         -1.8900    -6.3510    -0.0040 hc         1 4JZ       0.044033
     36 H4B         -1.0100    -5.0040    -0.7150 hc         1 4JZ       0.044033
     37 H7          -5.2150     3.1340    -1.1970 ha         1 4JZ       0.136000
     38 H9          -3.6200     1.3010    -1.5270 ha         1 4JZ       0.150000
     39 H13         -0.7870    -2.6830    -0.1790 ha         1 4JZ       0.203000
     40 H8          -7.1680     0.8930     1.8790 ha         1 4JZ       0.136000
     41 H1          -8.0160     3.2810    -0.3010 hc         1 4JZ       0.046033
     42 H1A         -7.8830     3.1570     1.4490 hc         1 4JZ       0.046033
     43 H1B         -6.8160     4.2370     0.5510 hc         1 4JZ       0.046033
     44 H2          -3.7090    -6.0350    -1.7360 hc         1 4JZ       0.044033
     45 H2A         -4.5320    -4.4880    -1.9060 hc         1 4JZ       0.044033
     46 H2B         -2.8480    -4.6500    -2.4110 hc         1 4JZ       0.044033
     47 H3          -3.8370    -4.7640     1.8000 hc         1 4JZ       0.044033
     48 H3A         -5.1270    -4.6470     0.5990 hc         1 4JZ       0.044033
     49 H3B         -4.2150    -6.1390     0.7600 hc         1 4JZ       0.044033
     50 H5           8.9850    -1.4660     1.6630 ha         1 4JZ       0.140000
     51 H10         -5.5510    -0.9240     1.5880 ha         1 4JZ       0.150000
     52 H11         10.5480    -0.2290     0.1740 h4         1 4JZ       0.018100
     53 H12          2.8630     0.2780    -0.5360 ha         1 4JZ       0.191000
     54 H14          7.5960     2.3410    -1.0520 h4         1 4JZ       0.021100
     55 H15          5.3510     1.9480    -1.4650 h1         1 4JZ       0.050200
     56 H15A         5.6080     3.1870    -0.2260 h1         1 4JZ       0.050200
     57 HN25         1.1700     4.0080     0.3510 hn         1 4JZ       0.314700
     58 HN28        -4.9190    -2.4880    -0.4670 hn         1 4JZ       0.468800
     59 HN29        -0.5180     2.2520     0.1090 hn         1 4JZ       0.327500
     60 H6           6.6030    -0.7400     1.7760 ha         1 4JZ       0.151000
@<TRIPOS>BOND
     1     1    24 1   
     2     1    34 1   
     3     1    35 1   
     4     1    36 1   
     5     2     4 ar  
     6     2    10 ar  
     7     2    37 1   
     8     3     9 ar  
     9     3    15 ar  
    10     3    60 1   
    11     4    21 ar  
    12     4    38 1   
    13     5     6 2   
    14     5    22 1   
    15     5    39 1   
    16     6    24 1   
    17     6    28 1   
    18     7    18 2   
    19     7    25 1   
    20     7    29 1   
    21     8    10 ar  
    22     8    16 ar  
    23     8    40 1   
    24     9    19 ar  
    25     9    33 1   
    26    10    12 1   
    27    11    18 1   
    28    11    20 1   
    29    11    27 2   
    30    12    41 1   
    31    12    42 1   
    32    12    43 1   
    33    13    24 1   
    34    13    44 1   
    35    13    45 1   
    36    13    46 1   
    37    14    24 1   
    38    14    47 1   
    39    14    48 1   
    40    14    49 1   
    41    15    17 ar  
    42    15    50 1   
    43    16    21 ar  
    44    16    51 1   
    45    17    26 ar  
    46    17    52 1   
    47    18    53 1   
    48    19    26 ar  
    49    19    54 1   
    50    20    33 1   
    51    20    55 1   
    52    20    56 1   
    53    21    31 1   
    54    22    30 2   
    55    22    31 1   
    56    23    29 1   
    57    23    30 1   
    58    23    32 2   
    59    25    27 1   
    60    25    57 1   
    61    28    31 1   
    62    28    58 1   
    63    29    59 1   
@<TRIPOS>SUBSTRUCTURE
     1 4JZ         1 TEMP              0 ****  ****    0 ROOT
