@<TRIPOS>MOLECULE
4K0
   39    43     1     0     0
SMALL
bcc


@<TRIPOS>ATOM
      1 N23         -6.6730     3.1940     0.6770 n1         1 4K0      -0.342800
      2 C22         -5.8100     2.4360     0.5880 cg         1 4K0       0.224800
      3 C19         -4.7400     1.4970     0.4780 ca         1 4K0       0.006000
      4 C20         -3.4580     1.9420     0.1550 ca         1 4K0      -0.094000
      5 C18         -4.9840     0.1430     0.6960 ca         1 4K0      -0.094000
      6 C17         -3.9430    -0.7620     0.5940 ca         1 4K0      -0.101000
      7 C16         -2.6580    -0.3280     0.2730 ca         1 4K0      -0.133500
      8 C21         -2.4260     1.0310     0.0530 ca         1 4K0      -0.101000
      9 C12         -1.5480    -1.2850     0.1520 cc         1 4K0       0.313500
     10 N15         -0.5640    -0.9570    -0.6250 nd         1 4K0      -0.410800
     11 N7           0.4210    -1.8390    -0.6700 na         1 4K0      -0.074500
     12 C8           0.4500    -3.0330     0.0100 cd         1 4K0       0.300500
     13 N14         -0.5660    -3.3800     0.8190 nd         1 4K0      -0.559000
     14 C13         -1.5360    -2.5300     0.8910 cc         1 4K0       0.336900
     15 C11          1.5780    -1.7890    -1.3760 cd         1 4K0       0.382800
     16 N10          2.2470    -2.8850    -1.1260 nc         1 4K0      -0.366700
     17 N9           1.5560    -3.6660    -0.2680 nc         1 4K0      -0.028000
     18 C24          1.9930    -0.6430    -2.2240 c3         1 4K0      -0.001500
     19 C25          2.2520     0.5830    -1.4070 cc         1 4K0      -0.149400
     20 C26          1.5520     1.7550    -1.4290 cd         1 4K0      -0.085100
     21 C1           3.2740     0.7480    -0.4210 ca         1 4K0      -0.198100
     22 C6           4.3040    -0.0340     0.0950 ca         1 4K0      -0.039000
     23 C5           5.1020     0.5300     1.0760 ca         1 4K0      -0.276300
     24 C2           3.1310     2.0530     0.1050 ca         1 4K0       0.433800
     25 N27          2.0780     2.6370    -0.5270 na         1 4K0      -0.276100
     26 N3           3.8840     2.6080     1.0420 nb         1 4K0      -0.684000
     27 C4           4.8550     1.8370     1.5110 ca         1 4K0       0.425200
     28 H20         -3.2710     2.9940    -0.0080 ha         1 4K0       0.151000
     29 H18         -5.9790    -0.2010     0.9410 ha         1 4K0       0.151000
     30 H21         -1.4310     1.3800    -0.1870 ha         1 4K0       0.147500
     31 H17         -4.1550    -1.8110     0.7490 ha         1 4K0       0.147500
     32 H13         -2.3600    -2.7680     1.5510 h4         1 4K0       0.047100
     33 H241         2.8900    -0.9500    -2.7650 hc         1 4K0       0.077200
     34 H242         1.2220    -0.4420    -2.9710 hc         1 4K0       0.077200
     35 H26          0.7010     2.0290    -2.0330 h4         1 4K0       0.166000
     36 H27          1.7450     3.5740    -0.3650 hn         1 4K0       0.311700
     37 H6           4.4780    -1.0450    -0.2510 ha         1 4K0       0.153000
     38 H5           5.9160    -0.0290     1.5160 ha         1 4K0       0.144000
     39 H4           5.4820     2.2730     2.2810 h4         1 4K0       0.019100
@<TRIPOS>BOND
     1     1     2 3   
     2     2     3 1   
     3     3     4 ar  
     4     3     5 ar  
     5     4     8 ar  
     6     4    28 1   
     7     5     6 ar  
     8     5    29 1   
     9     6     7 ar  
    10     6    31 1   
    11     7     8 ar  
    12     7     9 1   
    13     8    30 1   
    14     9    10 2   
    15     9    14 1   
    16    10    11 1   
    17    11    12 1   
    18    11    15 1   
    19    12    13 1   
    20    12    17 2   
    21    13    14 2   
    22    14    32 1   
    23    15    16 2   
    24    15    18 1   
    25    16    17 1   
    26    18    19 1   
    27    18    33 1   
    28    18    34 1   
    29    19    20 2   
    30    19    21 1   
    31    20    25 1   
    32    20    35 1   
    33    21    22 ar  
    34    21    24 ar  
    35    22    23 ar  
    36    22    37 1   
    37    23    27 ar  
    38    23    38 1   
    39    24    25 1   
    40    24    26 ar  
    41    25    36 1   
    42    26    27 ar  
    43    27    39 1   
@<TRIPOS>SUBSTRUCTURE
     1 4K0         1 TEMP              0 ****  ****    0 ROOT
