@<TRIPOS>MOLECULE
4K0
   39    43     1     0     0
SMALL
No Charge or Current Charge


@<TRIPOS>ATOM
      1 N23         -7.1930     3.0100     0.4130 n1         1 4K0      -0.432000
      2 C22         -6.2710     2.2950     0.3630 cg         1 4K0       0.314000
      3 C19         -5.1440     1.4040     0.3020 ca         1 4K0       0.006000
      4 C20         -3.9920     1.7660    -0.4130 ca         1 4K0      -0.076000
      5 C18         -5.1830     0.1630     0.9570 ca         1 4K0      -0.076000
      6 C17         -4.0820    -0.7100     0.9000 ca         1 4K0      -0.083000
      7 C16         -2.9050    -0.3660     0.1830 ca         1 4K0      -0.133500
      8 C21         -2.8900     0.8950    -0.4720 ca         1 4K0      -0.083000
      9 C12         -1.7240    -1.2750     0.1070 cc         1 4K0       0.313500
     10 N15         -0.6740    -0.8290    -0.6100 nd         1 4K0      -0.410800
     11 N7           0.3460    -1.7670    -0.5900 na         1 4K0      -0.074500
     12 C8           0.3030    -2.9640     0.0510 cd         1 4K0       0.300500
     13 N14         -0.7370    -3.4810     0.7960 nd         1 4K0      -0.559000
     14 C13         -1.7290    -2.5800     0.7870 cc         1 4K0       0.336900
     15 C11          1.5630    -1.6550    -1.2010 cd         1 4K0       0.382800
     16 N10          2.2540    -2.7660    -0.9420 nc         1 4K0      -0.366700
     17 N9           1.4480    -3.6000    -0.1440 nc         1 4K0      -0.028000
     18 C24          2.0720    -0.4890    -2.0110 c3         1 4K0      -0.001500
     19 C25          2.4250     0.7130    -1.1720 cc         1 4K0      -0.149400
     20 C26          1.7020     1.8890    -1.0320 cd         1 4K0      -0.135100
     21 C1           3.5750     0.8650    -0.3260 ca         1 4K0      -0.132800
     22 C6           4.6280    -0.0260    -0.0870 ca         1 4K0      -0.021000
     23 C5           5.6200     0.4130     0.8080 ca         1 4K0      -0.193000
     24 C2           3.5210     2.0970     0.2860 ca         1 4K0       0.368500
     25 N27          2.3810     2.7480    -0.1330 na         1 4K0      -0.326400
     26 N3           4.4640     2.5300     1.1450 nb         1 4K0      -0.684000
     27 C4           5.5000     1.6890     1.3980 ca         1 4K0       0.359900
     28 H20         -3.9450     2.7240    -0.9270 ha         1 4K0       0.133000
     29 H18         -6.0700    -0.1310     1.5160 ha         1 4K0       0.133000
     30 H21         -2.0220     1.2240    -1.0400 ha         1 4K0       0.129500
     31 H17         -4.1790    -1.6530     1.4280 ha         1 4K0       0.129500
     32 H13         -2.5750    -2.9280     1.3570 h4         1 4K0       0.047100
     33 H241         2.9490    -0.8000    -2.5900 hc         1 4K0       0.077200
     34 H242         1.3120    -0.2110    -2.7510 hc         1 4K0       0.077200
     35 H26          0.7600     2.1710    -1.4980 h4         1 4K0       0.216000
     36 H27          2.0940     3.6730     0.1650 hn         1 4K0       0.362000
     37 H6           4.6800    -1.0020    -0.5640 ha         1 4K0       0.135000
     38 H5           6.4710    -0.2190     1.0480 ha         1 4K0       0.126000
     39 H4           6.2560     2.0500     2.0940 h4         1 4K0       0.019100
@<TRIPOS>BOND
     1     1     2 3   
     2     2     3 1   
     3     3     4 ar  
     4     3     5 ar  
     5     4     8 ar  
     6     4    28 1   
     7     5     6 ar  
     8     5    29 1   
     9     6     7 ar  
    10     6    31 1   
    11     7     8 ar  
    12     7     9 1   
    13     8    30 1   
    14     9    10 2   
    15     9    14 1   
    16    10    11 1   
    17    11    12 1   
    18    11    15 1   
    19    12    13 1   
    20    12    17 2   
    21    13    14 2   
    22    14    32 1   
    23    15    16 2   
    24    15    18 1   
    25    16    17 1   
    26    18    19 1   
    27    18    33 1   
    28    18    34 1   
    29    19    20 2   
    30    19    21 1   
    31    20    25 1   
    32    20    35 1   
    33    21    22 ar  
    34    21    24 ar  
    35    22    23 ar  
    36    22    37 1   
    37    23    27 ar  
    38    23    38 1   
    39    24    25 1   
    40    24    26 ar  
    41    25    36 1   
    42    26    27 ar  
    43    27    39 1   
@<TRIPOS>SUBSTRUCTURE
     1 4K0         1 TEMP              0 ****  ****    0 ROOT
