@<TRIPOS>MOLECULE
4K2
   35    37     1     0     0
SMALL
No Charge or Current Charge


@<TRIPOS>ATOM
      1 C12          3.1900    -2.2630     0.3130 ca         1 4K2      -0.092000
      2 C18          3.3300     2.5520    -0.2580 ca         1 4K2      -0.163000
      3 C14          3.9230    -1.0850     0.1110 ca         1 4K2      -0.098000
      4 C15          4.0110     1.3300    -0.1760 ca         1 4K2      -0.059000
      5 C11          1.7920    -2.2070     0.4130 ca         1 4K2      -0.105000
      6 C13          1.9320     2.5600    -0.1450 ca         1 4K2       0.354900
      7 C8           3.2620     0.1550     0.0150 ca         1 4K2      -0.068000
      8 C5           1.8450     0.2360     0.1140 ca         1 4K2       0.254000
      9 C4           1.1220    -0.9770     0.3060 ca         1 4K2       0.156100
     10 C1          -1.0660    -0.7240    -0.6580 c          1 4K2       0.657100
     11 C19         -4.7740     0.9480     0.4560 c6         1 4K2      -0.073400
     12 C16         -4.2280     0.9360    -0.9920 c6         1 4K2      -0.106900
     13 C17         -3.6450     0.6350     1.4690 c6         1 4K2      -0.106900
     14 C9          -3.4940    -0.3920    -1.2980 c6         1 4K2       0.103000
     15 C10         -2.9250    -0.6860     1.1080 c6         1 4K2       0.103000
     16 N6           1.2030     1.4360     0.0380 nb         1 4K2      -0.660000
     17 N2          -2.4280    -0.6510    -0.2970 n          1 4K2      -0.381800
     18 O7          -0.6730    -0.6780    -1.8170 o          1 4K2      -0.519000
     19 O3          -0.2510    -0.9770     0.4090 os         1 4K2      -0.358200
     20 H1           3.7050    -3.2190     0.3910 ha         1 4K2       0.119000
     21 H2           3.8700     3.4830    -0.4040 ha         1 4K2       0.125000
     22 H3           5.0080    -1.1350     0.0350 ha         1 4K2       0.118000
     23 H4           5.0960     1.2970    -0.2560 ha         1 4K2       0.120000
     24 H5           1.2220    -3.1200     0.5680 ha         1 4K2       0.132000
     25 H6           1.3760     3.4960    -0.2030 h4         1 4K2       0.018100
     26 H8          -5.5770     0.2040     0.5550 hc         1 4K2       0.038700
     27 H9          -5.0500     1.0820    -1.7060 hc         1 4K2       0.053950
     28 H10         -3.5360     1.7770    -1.1340 hc         1 4K2       0.053950
     29 H11         -2.9160     1.4570     1.4780 hc         1 4K2       0.053950
     30 H12         -4.0580     0.5700     2.4850 hc         1 4K2       0.053950
     31 H13         -4.2140    -1.2230    -1.2760 h1         1 4K2       0.060200
     32 H14         -3.0770    -0.3520    -2.3140 h1         1 4K2       0.060200
     33 H15         -2.1140    -0.8610     1.8270 h1         1 4K2       0.060200
     34 H16         -3.6290    -1.5240     1.2120 h1         1 4K2       0.060200
     35 H7          -5.2230     1.9250     0.6820 hc         1 4K2       0.038700
@<TRIPOS>BOND
     1     1     3 ar  
     2     1     5 ar  
     3     1    20 1   
     4     2     4 ar  
     5     2     6 ar  
     6     2    21 1   
     7     3     7 ar  
     8     3    22 1   
     9     4     7 ar  
    10     4    23 1   
    11     5     9 ar  
    12     5    24 1   
    13     6    16 ar  
    14     6    25 1   
    15     7     8 ar  
    16     8     9 ar  
    17     8    16 ar  
    18     9    19 1   
    19    10    17 1   
    20    10    18 2   
    21    10    19 1   
    22    11    12 1   
    23    11    13 1   
    24    11    26 1   
    25    11    35 1   
    26    12    14 1   
    27    12    27 1   
    28    12    28 1   
    29    13    15 1   
    30    13    29 1   
    31    13    30 1   
    32    14    17 1   
    33    14    31 1   
    34    14    32 1   
    35    15    17 1   
    36    15    33 1   
    37    15    34 1   
@<TRIPOS>SUBSTRUCTURE
     1 4K2         1 TEMP              0 ****  ****    0 ROOT
