@<TRIPOS>MOLECULE
4K2
   35    37     1     0     0
SMALL
abcg2


@<TRIPOS>ATOM
      1 C12          3.2300    -2.1670     0.1460 ca         1 4K2      -0.092000
      2 C18          2.4350     2.5690    -0.0320 ca         1 4K2      -0.163000
      3 C14          3.7440    -0.9040     0.0440 ca         1 4K2      -0.098000
      4 C15          3.3390     1.5460    -0.0490 ca         1 4K2      -0.059000
      5 C11          1.8380    -2.3740     0.2450 ca         1 4K2      -0.105000
      6 C13          1.0630     2.2590     0.0840 ca         1 4K2       0.354900
      7 C8           2.8800     0.2140     0.0460 ca         1 4K2      -0.068000
      8 C5           1.4820     0.0210     0.1530 ca         1 4K2       0.254000
      9 C4           0.9900    -1.3060     0.2480 ca         1 4K2       0.156100
     10 C1          -1.1570    -1.1470    -0.6230 c          1 4K2       0.657100
     11 C19         -3.9860     1.3910     0.3340 c6         1 4K2      -0.073400
     12 C16         -3.5820     1.0180    -1.0900 c6         1 4K2      -0.106900
     13 C17         -3.0140     0.8040     1.3550 c6         1 4K2      -0.106900
     14 C9          -3.3970    -0.4900    -1.2170 c6         1 4K2       0.103000
     15 C10         -2.8310    -0.6940     1.1390 c6         1 4K2       0.103000
     16 N6           0.5990     1.0420     0.1730 nb         1 4K2      -0.660000
     17 N2          -2.4290    -0.9620    -0.2370 n          1 4K2      -0.381800
     18 O7          -0.7360    -1.1000    -1.7580 o          1 4K2      -0.519000
     19 O3          -0.3530    -1.4910     0.4200 os         1 4K2      -0.358200
     20 H1           3.8900    -3.0240     0.1470 ha         1 4K2       0.119000
     21 H2           2.7480     3.6020    -0.1030 ha         1 4K2       0.125000
     22 H3           4.8130    -0.7480    -0.0330 ha         1 4K2       0.118000
     23 H4           4.4020     1.7380    -0.1340 ha         1 4K2       0.120000
     24 H5           1.4430    -3.3790     0.3240 ha         1 4K2       0.132000
     25 H6           0.3330     3.0610     0.1030 h4         1 4K2       0.018100
     26 H8          -4.9930     1.0090     0.5330 hc         1 4K2       0.038700
     27 H9          -4.3380     1.3520    -1.8040 hc         1 4K2       0.053950
     28 H10         -2.6450     1.5150    -1.3580 hc         1 4K2       0.053950
     29 H11         -2.0380     1.2910     1.2670 hc         1 4K2       0.053950
     30 H12         -3.3720     0.9800     2.3710 hc         1 4K2       0.053950
     31 H13         -4.3440    -1.0000    -1.0190 h1         1 4K2       0.060200
     32 H14         -3.0790    -0.7720    -2.2170 h1         1 4K2       0.060200
     33 H15         -2.1100    -1.1070     1.8370 h1         1 4K2       0.060200
     34 H16         -3.7770    -1.2160     1.3120 h1         1 4K2       0.060200
     35 H7          -4.0380     2.4760     0.4430 hc         1 4K2       0.038700
@<TRIPOS>BOND
     1     1     3 ar  
     2     1     5 ar  
     3     1    20 1   
     4     2     4 ar  
     5     2     6 ar  
     6     2    21 1   
     7     3     7 ar  
     8     3    22 1   
     9     4     7 ar  
    10     4    23 1   
    11     5     9 ar  
    12     5    24 1   
    13     6    16 ar  
    14     6    25 1   
    15     7     8 ar  
    16     8     9 ar  
    17     8    16 ar  
    18     9    19 1   
    19    10    17 1   
    20    10    18 2   
    21    10    19 1   
    22    11    12 1   
    23    11    13 1   
    24    11    26 1   
    25    11    35 1   
    26    12    14 1   
    27    12    27 1   
    28    12    28 1   
    29    13    15 1   
    30    13    29 1   
    31    13    30 1   
    32    14    17 1   
    33    14    31 1   
    34    14    32 1   
    35    15    17 1   
    36    15    33 1   
    37    15    34 1   
@<TRIPOS>SUBSTRUCTURE
     1 4K2         1 TEMP              0 ****  ****    0 ROOT
