@<TRIPOS>MOLECULE
4K4
   80    85     1     0     0
SMALL
bcc


@<TRIPOS>ATOM
      1 C4          -5.2370     0.3610    -0.6110 ca         1 4K4       0.714200
      2 C5          -5.2410     1.4400     0.2850 ca         1 4K4      -0.241000
      3 C6          -4.0820     1.6010     1.0190 ca         1 4K4       0.463200
      4 N1          -3.0040     0.8410     0.8650 nb         1 4K4      -0.761000
      5 N3          -4.1640    -0.3740    -0.7940 nb         1 4K4      -0.813000
      6 CAU          7.5800     1.8680    -1.2300 c6         1 4K4       0.126800
      7 CAS          8.7100     1.8120    -2.2520 c6         1 4K4       0.160800
      8 NBL         10.0320     1.6800    -1.6710 n3         1 4K4      -0.709600
      9 CAB         10.5260     2.9000    -1.0640 c3         1 4K4       0.150100
     10 CAT         10.0240     0.5440    -0.7690 c6         1 4K4       0.160800
     11 CAV          8.9100     0.5810     0.2700 c6         1 4K4       0.126800
     12 NBN          7.5980     0.7010    -0.3560 n3         1 4K4      -0.708600
     13 CBK          6.5250     0.7370     0.6370 c6         1 4K4       0.186500
     14 CAP          5.1450     0.8720    -0.0110 c6         1 4K4      -0.103400
     15 CAR          4.0230     0.8550     1.0210 c6         1 4K4       0.092500
     16 CAO          6.5210    -0.5150     1.5190 c6         1 4K4      -0.103400
     17 CAQ          5.3630    -0.4930     2.5060 c6         1 4K4       0.092500
     18 NBM          4.0830    -0.3460     1.8380 n          1 4K4      -0.465800
     19 OAE          3.5790    -2.5430     2.0500 o          1 4K4      -0.595100
     20 CBB          1.9040    -1.1750     1.1290 ca         1 4K4      -0.140600
     21 CAN          1.4120    -2.0670     0.1750 ca         1 4K4      -0.143000
     22 CBE          0.1240    -1.9360    -0.3070 ca         1 4K4       0.078100
     23 OAZ         -0.4200    -2.7310    -1.2500 os         1 4K4      -0.341900
     24 CAA          0.3580    -3.7780    -1.7980 c3         1 4K4       0.130700
     25 CAI          1.0730    -0.1800     1.6150 ca         1 4K4      -0.105000
     26 CAJ         -0.2340    -0.0600     1.1600 ca         1 4K4      -0.144000
     27 CBC         -0.7310    -0.9240     0.1910 ca         1 4K4       0.171600
     28 C2          -3.0780    -0.0970    -0.0670 ca         1 4K4       0.929900
     29 NBP         -6.3830     0.0440    -1.3250 na         1 4K4      -0.642700
     30 CAD         -6.1950    -0.7140    -2.5520 c3         1 4K4       0.199100
     31 CBH         -7.5160    -0.2490    -0.5340 ca         1 4K4       0.173600
     32 CAL         -8.1450    -1.4900    -0.6550 ca         1 4K4      -0.175000
     33 CAH         -9.2290    -1.8170     0.1410 ca         1 4K4      -0.087000
     34 CAG         -9.7100    -0.9130     1.0790 ca         1 4K4      -0.152000
     35 CAK         -9.1140     0.3300     1.1790 ca         1 4K4      -0.061000
     36 CBG         -8.0220     0.6790     0.3840 ca         1 4K4      -0.159600
     37 CBF         -7.5820     2.1000     0.4640 c          1 4K4       0.733100
     38 OAF         -8.4080     2.9780     0.6600 o          1 4K4      -0.625500
     39 NBO         -6.2680     2.3990     0.3180 n          1 4K4      -0.360000
     40 CAC         -5.8820     3.8050     0.3570 c3         1 4K4       0.090300
     41 H1          -4.0050     2.3980     1.7500 h4         1 4K4       0.030100
     42 H2           7.6340     2.8060    -0.6500 h1         1 4K4       0.034200
     43 H3           6.6450     1.9010    -1.7880 h1         1 4K4       0.034200
     44 H4           8.5400     0.9530    -2.9100 h1         1 4K4       0.058450
     45 H5           8.6730     2.7060    -2.8790 h1         1 4K4       0.058450
     46 H7           9.9480     3.2680    -0.2060 h1         1 4K4       0.029700
     47 H8          11.5510     2.7460    -0.7210 h1         1 4K4       0.029700
     48 H9          10.5460     3.6970    -1.8090 h1         1 4K4       0.029700
     49 H10          9.9120    -0.3670    -1.3670 h1         1 4K4       0.058450
     50 H11         10.9880     0.4760    -0.2600 h1         1 4K4       0.058450
     51 H12          8.9680    -0.3460     0.8390 h1         1 4K4       0.034200
     52 H13          9.0850     1.4000     0.9900 h1         1 4K4       0.034200
     53 H15          6.6620     1.6110     1.3050 h1         1 4K4       0.016700
     54 H16          5.0530     1.8080    -0.5640 hc         1 4K4       0.056700
     55 H17          4.9980     0.0580    -0.7280 hc         1 4K4       0.056700
     56 H18          4.1050     1.7280     1.6750 h1         1 4K4       0.058200
     57 H19          3.0640     0.9220     0.5160 h1         1 4K4       0.058200
     58 H20          6.4600    -1.4070     0.8870 hc         1 4K4       0.056700
     59 H21          7.4390    -0.5930     2.1020 hc         1 4K4       0.056700
     60 H22          5.3570    -1.3950     3.1120 h1         1 4K4       0.058200
     61 H23          5.4810     0.3550     3.1880 h1         1 4K4       0.058200
     62 H24          2.0560    -2.8540    -0.1940 ha         1 4K4       0.151000
     63 H25          1.2520    -3.3980    -2.2990 h1         1 4K4       0.044700
     64 H26          0.6580    -4.5010    -1.0350 h1         1 4K4       0.044700
     65 H27         -0.2710    -4.2770    -2.5300 h1         1 4K4       0.044700
     66 H28          1.4260     0.5080     2.3730 ha         1 4K4       0.141000
     67 H29         -0.8710     0.7080     1.5680 ha         1 4K4       0.173000
     68 H30         -2.1990    -1.5830    -1.0540 hn         1 4K4       0.473800
     69 H31         -5.4250    -0.2310    -3.1480 h1         1 4K4       0.047700
     70 H32         -5.8990    -1.7520    -2.3930 h1         1 4K4       0.047700
     71 H33         -7.1240    -0.6920    -3.1180 h1         1 4K4       0.047700
     72 H34         -7.7790    -2.2200    -1.3630 ha         1 4K4       0.140000
     73 H35         -9.6900    -2.7900     0.0330 ha         1 4K4       0.135000
     74 H36        -10.5500    -1.1670     1.7100 ha         1 4K4       0.140000
     75 H37         -9.5080     1.0540     1.8790 ha         1 4K4       0.153000
     76 H38         -6.5870     4.4020    -0.2150 h1         1 4K4       0.047700
     77 H39         -5.8480     4.1900     1.3770 h1         1 4K4       0.047700
     78 H40         -4.8980     3.9130    -0.0910 h1         1 4K4       0.047700
     79 NAY         -2.0090    -0.8910    -0.3440 nu         1 4K4      -0.723300
     80 CBA          3.2660    -1.4130     1.6930 c          1 4K4       0.685700
@<TRIPOS>BOND
     1     1     2 ar  
     2     1     5 ar  
     3     1    29 1   
     4     2     3 ar  
     5     2    39 1   
     6     3     4 ar  
     7     3    41 1   
     8     4    28 ar  
     9     5    28 ar  
    10     6     7 1   
    11     6    12 1   
    12     6    42 1   
    13     6    43 1   
    14     7     8 1   
    15     7    44 1   
    16     7    45 1   
    17     8     9 1   
    18     8    10 1   
    19     9    46 1   
    20     9    47 1   
    21     9    48 1   
    22    10    11 1   
    23    10    49 1   
    24    10    50 1   
    25    11    12 1   
    26    11    51 1   
    27    11    52 1   
    28    12    13 1   
    29    13    14 1   
    30    13    16 1   
    31    13    53 1   
    32    14    15 1   
    33    14    54 1   
    34    14    55 1   
    35    15    18 1   
    36    15    56 1   
    37    15    57 1   
    38    16    17 1   
    39    16    58 1   
    40    16    59 1   
    41    17    18 1   
    42    17    60 1   
    43    17    61 1   
    44    18    80 1   
    45    19    80 2   
    46    20    21 ar  
    47    20    25 ar  
    48    20    80 1   
    49    21    22 ar  
    50    21    62 1   
    51    22    23 1   
    52    22    27 ar  
    53    23    24 1   
    54    24    63 1   
    55    24    64 1   
    56    24    65 1   
    57    25    26 ar  
    58    25    66 1   
    59    26    27 ar  
    60    26    67 1   
    61    27    79 1   
    62    28    79 1   
    63    29    30 1   
    64    29    31 1   
    65    30    69 1   
    66    30    70 1   
    67    30    71 1   
    68    31    32 ar  
    69    31    36 ar  
    70    32    33 ar  
    71    32    72 1   
    72    33    34 ar  
    73    33    73 1   
    74    34    35 ar  
    75    34    74 1   
    76    35    36 ar  
    77    35    75 1   
    78    36    37 1   
    79    37    38 2   
    80    37    39 1   
    81    39    40 1   
    82    40    76 1   
    83    40    77 1   
    84    40    78 1   
    85    68    79 1   
@<TRIPOS>SUBSTRUCTURE
     1 4K4         1 TEMP              0 ****  ****    0 ROOT
