@<TRIPOS>MOLECULE
4K4
   80    85     1     0     0
SMALL
No Charge or Current Charge


@<TRIPOS>ATOM
      1 C4          -5.2980     0.1780    -0.7220 ca         1 4K4       0.385900
      2 C5          -5.0360     1.5330    -0.4110 ca         1 4K4      -0.110400
      3 C6          -3.7380     1.8170     0.0710 ca         1 4K4       0.134900
      4 N1          -2.7700     0.8870     0.1190 nb         1 4K4      -0.235000
      5 N3          -4.3220    -0.7470    -0.6780 nb         1 4K4      -0.287000
      6 CAU          7.5760     2.2520    -0.9790 c6         1 4K4       0.126800
      7 CAS          8.7620     2.5110    -1.9660 c6         1 4K4       0.160800
      8 NBL         10.0990     2.3860    -1.3130 n3         1 4K4      -0.709600
      9 CAB         10.4150     3.5070    -0.3960 c3         1 4K4       0.150100
     10 CAT         10.1940     1.0440    -0.6640 c6         1 4K4       0.160800
     11 CAV          9.0240     0.7680     0.3380 c6         1 4K4       0.126800
     12 NBN          7.6620     0.9170    -0.2880 n3         1 4K4      -0.708600
     13 CBK          6.5420     0.6970     0.6960 c6         1 4K4       0.186500
     14 CAP          5.1380     0.8240     0.0260 c6         1 4K4      -0.103400
     15 CAR          3.9800     0.5220     1.0040 c6         1 4K4       0.092500
     16 CAO          6.6280    -0.7020     1.3810 c6         1 4K4      -0.103400
     17 CAQ          5.4410    -0.9520     2.3370 c6         1 4K4       0.092500
     18 NBM          4.1360    -0.8080     1.6480 n          1 4K4      -0.398800
     19 OAE          3.8650    -3.0630     1.3000 o          1 4K4      -0.595100
     20 CBB          1.9320    -1.7460     0.8440 ca         1 4K4      -0.140600
     21 CAN          1.3410    -2.6350    -0.0800 ca         1 4K4      -0.125000
     22 CBE         -0.0170    -2.4960    -0.4530 ca         1 4K4       0.078100
     23 OAZ         -0.6150    -3.3590    -1.3650 os         1 4K4      -0.365100
     24 CAA          0.0980    -4.4410    -1.9920 c3         1 4K4       0.153900
     25 CAI          1.1280    -0.7460     1.4320 ca         1 4K4      -0.087000
     26 CAJ         -0.2210    -0.6030     1.0660 ca         1 4K4      -0.126000
     27 CBC         -0.8020    -1.4560     0.1090 ca         1 4K4       0.310000
     28 C2          -3.1130    -0.3510    -0.2650 ca         1 4K4       0.403900
     29 NBP         -6.5830    -0.1370    -1.0900 na         1 4K4      -0.781100
     30 CAD         -6.9120    -0.4620    -2.4950 c3         1 4K4       0.199100
     31 CBH         -7.5370    -0.1880    -0.1000 ca         1 4K4       0.312000
     32 CAL         -8.1130    -1.4320     0.2120 ca         1 4K4      -0.157000
     33 CAH         -9.0960    -1.5330     1.2070 ca         1 4K4      -0.069000
     34 CAG         -9.5070    -0.3810     1.8900 ca         1 4K4      -0.134000
     35 CAK         -8.9320     0.8640     1.5810 ca         1 4K4      -0.043000
     36 CBG         -7.9250     0.9760     0.5910 ca         1 4K4      -0.159600
     37 CBF         -7.3710     2.3500     0.2790 c          1 4K4       0.590600
     38 OAF         -8.0740     3.3280     0.5170 o          1 4K4      -0.550000
     39 NBO         -6.0780     2.5410    -0.3010 n          1 4K4      -0.293000
     40 CAC         -5.6880     3.9360    -0.6260 c3         1 4K4       0.090300
     41 H1          -3.4630     2.8090     0.4250 h4         1 4K4       0.030100
     42 H2           7.5440     3.0630    -0.2370 h1         1 4K4       0.034200
     43 H3           6.6560     2.3250    -1.5740 h1         1 4K4       0.034200
     44 H4           8.6830     1.7870    -2.7900 h1         1 4K4       0.058450
     45 H5           8.6430     3.5080    -2.4160 h1         1 4K4       0.058450
     46 H7           9.7060     3.5580     0.4410 h1         1 4K4       0.029700
     47 H8          11.4250     3.3920     0.0200 h1         1 4K4       0.029700
     48 H9          10.3780     4.4650    -0.9320 h1         1 4K4       0.029700
     49 H10         10.1750     0.2580    -1.4330 h1         1 4K4       0.058450
     50 H11         11.1530     0.9370    -0.1340 h1         1 4K4       0.058450
     51 H12          9.1710    -0.2530     0.7140 h1         1 4K4       0.034200
     52 H13          9.1220     1.4460     1.1980 h1         1 4K4       0.034200
     53 H15          6.6040     1.4600     1.4860 h1         1 4K4       0.016700
     54 H16          4.9790     1.8380    -0.3610 hc         1 4K4       0.056700
     55 H17          5.0760     0.1430    -0.8330 hc         1 4K4       0.056700
     56 H18          3.9480     1.2950     1.7860 h1         1 4K4       0.058200
     57 H19          3.0390     0.5860     0.4440 h1         1 4K4       0.058200
     58 H20          6.6580    -1.4910     0.6180 hc         1 4K4       0.056700
     59 H21          7.5460    -0.7950     1.9730 hc         1 4K4       0.056700
     60 H22          5.5320    -1.9510     2.7860 h1         1 4K4       0.058200
     61 H23          5.4840    -0.2280     3.1630 h1         1 4K4       0.058200
     62 H24          1.9550    -3.4230    -0.5060 ha         1 4K4       0.133000
     63 H25          0.9460    -4.0640    -2.5770 h1         1 4K4       0.044700
     64 H26          0.4730    -5.1490    -1.2410 h1         1 4K4       0.044700
     65 H27         -0.5660    -4.9900    -2.6720 h1         1 4K4       0.044700
     66 H28          1.5380    -0.0870     2.1950 ha         1 4K4       0.123000
     67 H29         -0.8120     0.1630     1.5540 ha         1 4K4       0.155000
     68 H30         -2.4570    -2.1700    -0.7990 hn         1 4K4       0.529000
     69 H31         -6.3420     0.1860    -3.1740 h1         1 4K4       0.047700
     70 H32         -6.6600    -1.5100    -2.7050 h1         1 4K4       0.047700
     71 H33         -7.9850    -0.3090    -2.6790 h1         1 4K4       0.047700
     72 H34         -7.7940    -2.3230    -0.3210 ha         1 4K4       0.122000
     73 H35         -9.5390    -2.4990     1.4450 ha         1 4K4       0.117000
     74 H36        -10.2730    -0.4490     2.6590 ha         1 4K4       0.122000
     75 H37         -9.2690     1.7450     2.1240 ha         1 4K4       0.135000
     76 H38         -6.4970     4.4370    -1.1730 h1         1 4K4       0.047700
     77 H39         -5.4800     4.4880     0.3000 h1         1 4K4       0.047700
     78 H40         -4.7930     3.9440    -1.2600 h1         1 4K4       0.047700
     79 NAY         -2.1510    -1.3490    -0.2760 nu         1 4K4      -0.916900
     80 CBA          3.3830    -1.9370     1.2440 c          1 4K4       0.618700
@<TRIPOS>BOND
     1     1     2 ar  
     2     1     5 ar  
     3     1    29 1   
     4     2     3 ar  
     5     2    39 1   
     6     3     4 ar  
     7     3    41 1   
     8     4    28 ar  
     9     5    28 ar  
    10     6     7 1   
    11     6    12 1   
    12     6    42 1   
    13     6    43 1   
    14     7     8 1   
    15     7    44 1   
    16     7    45 1   
    17     8     9 1   
    18     8    10 1   
    19     9    46 1   
    20     9    47 1   
    21     9    48 1   
    22    10    11 1   
    23    10    49 1   
    24    10    50 1   
    25    11    12 1   
    26    11    51 1   
    27    11    52 1   
    28    12    13 1   
    29    13    14 1   
    30    13    16 1   
    31    13    53 1   
    32    14    15 1   
    33    14    54 1   
    34    14    55 1   
    35    15    18 1   
    36    15    56 1   
    37    15    57 1   
    38    16    17 1   
    39    16    58 1   
    40    16    59 1   
    41    17    18 1   
    42    17    60 1   
    43    17    61 1   
    44    18    80 1   
    45    19    80 2   
    46    20    21 ar  
    47    20    25 ar  
    48    20    80 1   
    49    21    22 ar  
    50    21    62 1   
    51    22    23 1   
    52    22    27 ar  
    53    23    24 1   
    54    24    63 1   
    55    24    64 1   
    56    24    65 1   
    57    25    26 ar  
    58    25    66 1   
    59    26    27 ar  
    60    26    67 1   
    61    27    79 1   
    62    28    79 1   
    63    29    30 1   
    64    29    31 1   
    65    30    69 1   
    66    30    70 1   
    67    30    71 1   
    68    31    32 ar  
    69    31    36 ar  
    70    32    33 ar  
    71    32    72 1   
    72    33    34 ar  
    73    33    73 1   
    74    34    35 ar  
    75    34    74 1   
    76    35    36 ar  
    77    35    75 1   
    78    36    37 1   
    79    37    38 2   
    80    37    39 1   
    81    39    40 1   
    82    40    76 1   
    83    40    77 1   
    84    40    78 1   
    85    68    79 1   
@<TRIPOS>SUBSTRUCTURE
     1 4K4         1 TEMP              0 ****  ****    0 ROOT
