@<TRIPOS>MOLECULE
4K5
   53    56     1     0     0
SMALL
bcc


@<TRIPOS>ATOM
      1 C4           4.1960    -0.1340    -0.0400 ca         1 4K5       0.803200
      2 C5           4.2190     1.2600    -0.3380 ca         1 4K5      -0.571900
      3 C6           3.0000     1.8980    -0.3290 ca         1 4K5       0.555200
      4 N1           1.8460     1.2930    -0.0770 nb         1 4K5      -0.797000
      5 N3           3.0420    -0.7350     0.2100 nb         1 4K5      -0.854000
      6 CAL          6.2940    -3.1520    -0.3280 cx         1 4K5      -0.130400
      7 CAM          4.8500    -3.2670    -0.7100 cx         1 4K5      -0.130400
      8 CBD          5.2740    -2.2800     0.3280 cx         1 4K5       0.169500
      9 NAS          5.3020    -0.8920    -0.0020 nu         1 4K5      -0.836900
     10 CBF          5.4690     1.9910    -0.6630 c3         1 4K5       0.745200
     11 FAE          6.3740     1.9300     0.3340 f          1 4K5      -0.238967
     12 FAF          6.0860     1.4870    -1.7470 f          1 4K5      -0.238967
     13 FAD          5.2530     3.2850    -0.9070 f          1 4K5      -0.238967
     14 C2           1.9290    -0.0090     0.1740 ca         1 4K5       0.969900
     15 NAR          0.8010    -0.7240     0.4340 nu         1 4K5      -0.720300
     16 CAY         -0.5270    -0.3420     0.5080 ca         1 4K5       0.196600
     17 CAZ         -1.4500    -1.3630     0.8450 ca         1 4K5       0.065100
     18 CAI         -2.7970    -1.0770     0.9400 ca         1 4K5      -0.143000
     19 OAT         -0.9090    -2.5790     1.0550 os         1 4K5      -0.336900
     20 CAA         -1.7640    -3.6600     1.3710 c3         1 4K5       0.130700
     21 CAH         -1.0070     0.9400     0.2740 ca         1 4K5      -0.183000
     22 CAW         -2.3620     1.1890     0.3900 ca         1 4K5       0.175900
     23 FAC         -2.7930     2.4380     0.1440 f          1 4K5      -0.128900
     24 CBA         -3.2790     0.2160     0.7120 ca         1 4K5      -0.187600
     25 CAV         -4.7200     0.5480     0.9330 c          1 4K5       0.698700
     26 OAB         -5.0310     1.3460     1.8060 o          1 4K5      -0.579100
     27 NBE         -5.6190    -0.1070     0.1730 n          1 4K5      -0.477800
     28 CAN         -7.0470     0.0500     0.4000 c6         1 4K5       0.061500
     29 CAJ         -7.7060     0.6380    -0.8360 c6         1 4K5       0.108400
     30 OAU         -7.4350    -0.1380    -1.9820 os         1 4K5      -0.398600
     31 CAK         -6.0490    -0.2400    -2.2140 c6         1 4K5       0.108400
     32 CAO         -5.3200    -0.8610    -1.0320 c6         1 4K5       0.061500
     33 H1           2.9320     2.9590    -0.5380 h4         1 4K5       0.037100
     34 H3           6.9690    -2.6920    -1.0390 hc         1 4K5       0.080200
     35 H4           4.5520    -2.8790    -1.6750 hc         1 4K5       0.080200
     36 H5           4.2920    -4.1320    -0.3780 hc         1 4K5       0.080200
     37 H6           5.0130    -2.5040     1.3580 h1         1 4K5       0.093700
     38 H7           6.2080    -0.4590    -0.0420 hn         1 4K5       0.457800
     39 H8           0.9800    -1.7010     0.6130 hn         1 4K5       0.475800
     40 H9          -3.5050    -1.8530     1.1990 ha         1 4K5       0.146000
     41 H10         -1.1280    -4.5340     1.4810 h1         1 4K5       0.044367
     42 H11         -2.3000    -3.4910     2.3090 h1         1 4K5       0.044367
     43 H12         -2.4890    -3.8480     0.5750 h1         1 4K5       0.044367
     44 H13         -0.3320     1.7370     0.0060 ha         1 4K5       0.195000
     45 H14         -7.4750    -0.9330     0.6200 h1         1 4K5       0.064450
     46 H15         -7.2200     0.6940     1.2590 h1         1 4K5       0.064450
     47 H16         -8.7890     0.6590    -0.7030 h1         1 4K5       0.055950
     48 H17         -7.3610     1.6720    -0.9770 h1         1 4K5       0.055950
     49 H18         -5.9080    -0.8630    -3.0990 h1         1 4K5       0.055950
     50 H19         -5.6170     0.7500    -2.4210 h1         1 4K5       0.055950
     51 H20         -4.2530    -0.8610    -1.2380 h1         1 4K5       0.064450
     52 H21         -5.6330    -1.9010    -0.8970 h1         1 4K5       0.064450
     53 H2           6.7400    -3.9360     0.2700 hc         1 4K5       0.080200
@<TRIPOS>BOND
     1     1     2 ar  
     2     1     5 ar  
     3     1     9 1   
     4     2     3 ar  
     5     2    10 1   
     6     3     4 ar  
     7     3    33 1   
     8     4    14 ar  
     9     5    14 ar  
    10     6     7 1   
    11     6     8 1   
    12     6    34 1   
    13     6    53 1   
    14     7     8 1   
    15     7    35 1   
    16     7    36 1   
    17     8     9 1   
    18     8    37 1   
    19     9    38 1   
    20    10    11 1   
    21    10    12 1   
    22    10    13 1   
    23    14    15 1   
    24    15    16 1   
    25    15    39 1   
    26    16    17 ar  
    27    16    21 ar  
    28    17    18 ar  
    29    17    19 1   
    30    18    24 ar  
    31    18    40 1   
    32    19    20 1   
    33    20    41 1   
    34    20    42 1   
    35    20    43 1   
    36    21    22 ar  
    37    21    44 1   
    38    22    23 1   
    39    22    24 ar  
    40    24    25 1   
    41    25    26 2   
    42    25    27 1   
    43    27    28 1   
    44    27    32 1   
    45    28    29 1   
    46    28    45 1   
    47    28    46 1   
    48    29    30 1   
    49    29    47 1   
    50    29    48 1   
    51    30    31 1   
    52    31    32 1   
    53    31    49 1   
    54    31    50 1   
    55    32    51 1   
    56    32    52 1   
@<TRIPOS>SUBSTRUCTURE
     1 4K5         1 TEMP              0 ****  ****    0 ROOT
