@<TRIPOS>MOLECULE
4K5
   53    56     1     0     0
SMALL
No Charge or Current Charge


@<TRIPOS>ATOM
      1 C4           4.2250    -0.1320    -0.0740 ca         1 4K5       0.474900
      2 C5           4.2640     1.1480    -0.6460 ca         1 4K5      -0.441300
      3 C6           3.0300     1.8120    -0.7750 ca         1 4K5       0.226900
      4 N1           1.8780     1.2520    -0.3710 nb         1 4K5      -0.271000
      5 N3           3.0780    -0.6950     0.3310 nb         1 4K5      -0.328000
      6 CAL          6.6570    -3.0450     0.2170 cx         1 4K5      -0.130400
      7 CAM          5.2770    -3.3650    -0.3010 cx         1 4K5      -0.130400
      8 CBD          5.4780    -2.2080     0.6450 cx         1 4K5       0.169500
      9 NAS          5.3790    -0.8820     0.0970 nu         1 4K5      -0.892100
     10 CBF          5.5580     1.8060    -1.1170 c3         1 4K5       0.381300
     11 FAE          6.4440     1.9440    -0.1060 f          1 4K5      -0.117667
     12 FAF          6.1650     1.0780    -2.0810 f          1 4K5      -0.117667
     13 FAD          5.3620     3.0410    -1.6310 f          1 4K5      -0.117667
     14 C2           1.9680     0.0290     0.1720 ca         1 4K5       0.443900
     15 NAR          0.8110    -0.6140     0.5780 nu         1 4K5      -0.913900
     16 CAY         -0.5510    -0.2840     0.6650 ca         1 4K5       0.335000
     17 CAZ         -1.5010    -1.3370     0.6970 ca         1 4K5       0.065100
     18 CAI         -2.8800    -1.0370     0.7910 ca         1 4K5      -0.125000
     19 OAT         -1.0420    -2.6480     0.6370 os         1 4K5      -0.360100
     20 CAA         -1.9280    -3.7820     0.6470 c3         1 4K5       0.153900
     21 CAH         -0.9950     1.0440     0.7640 ca         1 4K5      -0.165000
     22 CAW         -2.3610     1.3350     0.8590 ca         1 4K5       0.211000
     23 FAC         -2.7380     2.6320     0.9210 f          1 4K5      -0.164000
     24 CBA         -3.3220     0.3050     0.8560 ca         1 4K5      -0.187600
     25 CAV         -4.7920     0.6300     0.9810 c          1 4K5       0.631700
     26 OAB         -5.1830     1.4950     1.7550 o          1 4K5      -0.579100
     27 NBE         -5.7150    -0.1830     0.2790 n          1 4K5      -0.410800
     28 CAN         -7.1840    -0.0990     0.5400 c6         1 4K5       0.061500
     29 CAJ         -7.9370     0.5860    -0.6290 c6         1 4K5       0.131600
     30 OAU         -7.6310    -0.0870    -1.8700 os         1 4K5      -0.445000
     31 CAK         -6.2230    -0.0700    -2.1910 c6         1 4K5       0.131600
     32 CAO         -5.4040    -0.7600    -1.0670 c6         1 4K5       0.061500
     33 H1           2.9490     2.8070    -1.2110 h4         1 4K5       0.037100
     34 H3           7.3710    -2.6140    -0.4800 hc         1 4K5       0.080200
     35 H4           5.0580    -3.1390    -1.3420 hc         1 4K5       0.080200
     36 H5           4.7790    -4.2490     0.0890 hc         1 4K5       0.080200
     37 H6           5.1200    -2.3190     1.6720 h1         1 4K5       0.093700
     38 H7           6.2220    -0.4000    -0.2060 hn         1 4K5       0.513000
     39 H8           0.9670    -1.6100     0.7340 hn         1 4K5       0.531000
     40 H9          -3.6170    -1.8350     0.8340 ha         1 4K5       0.128000
     41 H10         -1.3530    -4.7150     0.5850 h1         1 4K5       0.044367
     42 H11         -2.5180    -3.8090     1.5720 h1         1 4K5       0.044367
     43 H12         -2.6140    -3.7490    -0.2090 h1         1 4K5       0.044367
     44 H13         -0.2890     1.8650     0.7840 ha         1 4K5       0.177000
     45 H14         -7.5790    -1.1160     0.6710 h1         1 4K5       0.064450
     46 H15         -7.3890     0.4430     1.4730 h1         1 4K5       0.064450
     47 H16         -9.0210     0.5450    -0.4530 h1         1 4K5       0.055950
     48 H17         -7.6400     1.6430    -0.7030 h1         1 4K5       0.055950
     49 H18         -6.0640    -0.5920    -3.1460 h1         1 4K5       0.055950
     50 H19         -5.8910     0.9720    -2.3120 h1         1 4K5       0.055950
     51 H20         -4.3390    -0.6540    -1.3100 h1         1 4K5       0.064450
     52 H21         -5.6330    -1.8350    -1.0590 h1         1 4K5       0.064450
     53 H2           7.0900    -3.7160     0.9550 hc         1 4K5       0.080200
@<TRIPOS>BOND
     1     1     2 ar  
     2     1     5 ar  
     3     1     9 1   
     4     2     3 ar  
     5     2    10 1   
     6     3     4 ar  
     7     3    33 1   
     8     4    14 ar  
     9     5    14 ar  
    10     6     7 1   
    11     6     8 1   
    12     6    34 1   
    13     6    53 1   
    14     7     8 1   
    15     7    35 1   
    16     7    36 1   
    17     8     9 1   
    18     8    37 1   
    19     9    38 1   
    20    10    11 1   
    21    10    12 1   
    22    10    13 1   
    23    14    15 1   
    24    15    16 1   
    25    15    39 1   
    26    16    17 ar  
    27    16    21 ar  
    28    17    18 ar  
    29    17    19 1   
    30    18    24 ar  
    31    18    40 1   
    32    19    20 1   
    33    20    41 1   
    34    20    42 1   
    35    20    43 1   
    36    21    22 ar  
    37    21    44 1   
    38    22    23 1   
    39    22    24 ar  
    40    24    25 1   
    41    25    26 2   
    42    25    27 1   
    43    27    28 1   
    44    27    32 1   
    45    28    29 1   
    46    28    45 1   
    47    28    46 1   
    48    29    30 1   
    49    29    47 1   
    50    29    48 1   
    51    30    31 1   
    52    31    32 1   
    53    31    49 1   
    54    31    50 1   
    55    32    51 1   
    56    32    52 1   
@<TRIPOS>SUBSTRUCTURE
     1 4K5         1 TEMP              0 ****  ****    0 ROOT
