@<TRIPOS>MOLECULE
4K6
   47    50     1     0     0
SMALL
bcc


@<TRIPOS>ATOM
      1 O            1.1950    -2.2270     0.8410 o          1 4K6      -0.587100
      2 C11          1.4810    -1.1350     0.3700 c          1 4K6       0.677700
      3 C12          2.9060    -0.6990     0.2460 ca         1 4K6      -0.149600
      4 C17          3.2880     0.6400     0.2790 ca         1 4K6      -0.073000
      5 C16          4.6220     0.9980     0.1790 ca         1 4K6      -0.145000
      6 C15          5.5870     0.0090     0.0580 ca         1 4K6       0.023800
      7 N3           6.9480     0.3660    -0.0430 na         1 4K6      -0.281800
      8 C19          7.9070    -0.2190    -0.8070 cc         1 4K6       0.380900
      9 N5           9.0420     0.3880    -0.6400 nd         1 4K6      -0.353000
     10 N4           8.8460     1.3930     0.2540 nd         1 4K6      -0.353000
     11 C18          7.5950     1.3720     0.6000 cc         1 4K6       0.380900
     12 C14          5.2250    -1.3320     0.0410 ca         1 4K6      -0.145000
     13 C13          3.8890    -1.6780     0.1370 ca         1 4K6      -0.073000
     14 N2           0.5570    -0.2620    -0.0600 ns         1 4K6      -0.574900
     15 C10         -0.8600    -0.5510    -0.0090 c3         1 4K6       0.109000
     16 C9          -1.6510     0.7300    -0.2290 c3         1 4K6      -0.105700
     17 C8          -3.1190     0.4890    -0.1740 cc         1 4K6       0.408800
     18 N1          -3.9930     1.4740     0.1600 na         1 4K6      -0.264300
     19 C3          -5.2550     0.9420     0.1030 ca         1 4K6      -0.076200
     20 C2          -6.5190     1.4630     0.3470 ca         1 4K6      -0.134000
     21 N           -3.7150    -0.6410    -0.4430 nd         1 4K6      -0.571100
     22 C4          -5.0590    -0.3900    -0.2780 ca         1 4K6       0.069400
     23 C5          -6.1610    -1.2300    -0.4280 ca         1 4K6      -0.064000
     24 C6          -7.4320    -0.7310    -0.1920 ca         1 4K6      -0.096300
     25 C7          -8.6300    -1.6250    -0.3470 c3         1 4K6      -0.042800
     26 C1          -7.6110     0.6210     0.2000 ca         1 4K6      -0.052300
     27 C           -8.9930     1.1430     0.4680 c3         1 4K6      -0.047800
     28 H17          2.5540     1.4260     0.3970 ha         1 4K6       0.150500
     29 H16          4.8980     2.0450     0.1880 ha         1 4K6       0.149500
     30 H19          7.7220    -1.0510    -1.4670 h5         1 4K6       0.067600
     31 H18          7.1190     2.0300     1.3100 h5         1 4K6       0.067600
     32 H15          5.9790    -2.1060    -0.0240 ha         1 4K6       0.149500
     33 H14          3.6140    -2.7240     0.1320 ha         1 4K6       0.150500
     34 H13          0.8520     0.5320    -0.6050 hn         1 4K6       0.310500
     35 H11         -1.1310    -1.2950    -0.7620 h1         1 4K6       0.075200
     36 H12         -1.1040    -0.9740     0.9650 h1         1 4K6       0.075200
     37 H9          -1.3760     1.4730     0.5230 hc         1 4K6       0.054700
     38 H10         -1.3980     1.1630    -1.2020 hc         1 4K6       0.054700
     39 H           -3.7480     2.4170     0.4150 hn         1 4K6       0.303700
     40 H4          -6.6560     2.4960     0.6440 ha         1 4K6       0.133000
     41 H5          -6.0240    -2.2640    -0.7230 ha         1 4K6       0.147000
     42 H7          -9.1860    -1.7220     0.5880 hc         1 4K6       0.040700
     43 H8          -9.3320    -1.2390    -1.0890 hc         1 4K6       0.040700
     44 H6          -8.3350    -2.6260    -0.6600 hc         1 4K6       0.040700
     45 H1          -9.6420     1.0400    -0.4050 hc         1 4K6       0.042367
     46 H2          -9.4760     0.5980     1.2820 hc         1 4K6       0.042367
     47 H3          -8.9720     2.1960     0.7420 hc         1 4K6       0.042367
@<TRIPOS>BOND
     1     1     2 2   
     2     2     3 1   
     3     2    14 1   
     4     3     4 ar  
     5     3    13 ar  
     6     4     5 ar  
     7     4    28 1   
     8     5     6 ar  
     9     5    29 1   
    10     6     7 1   
    11     6    12 ar  
    12     7     8 1   
    13     7    11 1   
    14     8     9 2   
    15     8    30 1   
    16     9    10 1   
    17    10    11 2   
    18    11    31 1   
    19    12    13 ar  
    20    12    32 1   
    21    13    33 1   
    22    14    15 1   
    23    14    34 1   
    24    15    16 1   
    25    15    35 1   
    26    15    36 1   
    27    16    17 1   
    28    16    37 1   
    29    16    38 1   
    30    17    18 1   
    31    17    21 2   
    32    18    19 1   
    33    18    39 1   
    34    19    20 ar  
    35    19    22 ar  
    36    20    26 ar  
    37    20    40 1   
    38    21    22 1   
    39    22    23 ar  
    40    23    24 ar  
    41    23    41 1   
    42    24    25 1   
    43    24    26 ar  
    44    25    42 1   
    45    25    43 1   
    46    25    44 1   
    47    26    27 1   
    48    27    45 1   
    49    27    46 1   
    50    27    47 1   
@<TRIPOS>SUBSTRUCTURE
     1 4K6         1 TEMP              0 ****  ****    0 ROOT
