@<TRIPOS>MOLECULE
4K6
   47    50     1     0     0
SMALL
No Charge or Current Charge


@<TRIPOS>ATOM
      1 O            0.9740    -1.9250    -0.3550 o          1 4K6      -0.587100
      2 C11          1.4030    -0.8810     0.1150 c          1 4K6       0.610700
      3 C12          2.8780    -0.5310     0.0860 ca         1 4K6      -0.149600
      4 C17          3.3810     0.6790     0.6230 ca         1 4K6      -0.055000
      5 C16          4.7560     0.9670     0.5760 ca         1 4K6      -0.127000
      6 C15          5.6620     0.0600    -0.0060 ca         1 4K6       0.023800
      7 N3           7.0280     0.3500    -0.0510 na         1 4K6      -0.281800
      8 C19          7.8960    -0.0330    -1.0390 cc         1 4K6       0.380900
      9 N5           9.0960     0.4360    -0.7180 nd         1 4K6      -0.353000
     10 N4           8.9910     1.1170     0.4830 nd         1 4K6      -0.353000
     11 C18          7.7270     1.0640     0.8850 cc         1 4K6       0.380900
     12 C14          5.1670    -1.1440    -0.5430 ca         1 4K6      -0.127000
     13 C13          3.7930    -1.4350    -0.4970 ca         1 4K6      -0.055000
     14 N2           0.5570     0.0360     0.7040 ns         1 4K6      -0.507900
     15 C10         -0.8990    -0.1110     0.8030 c3         1 4K6       0.109000
     16 C9          -1.6090     0.2370    -0.5190 c3         1 4K6      -0.105700
     17 C8          -3.1030     0.1300    -0.4090 cc         1 4K6       0.408800
     18 N1          -3.9430     1.2090    -0.1510 na         1 4K6      -0.314600
     19 C3          -5.2120     0.7220    -0.1140 ca         1 4K6      -0.076200
     20 C2          -6.4250     1.3790     0.1090 ca         1 4K6      -0.116000
     21 N           -3.8040    -1.0140    -0.5320 nd         1 4K6      -0.571100
     22 C4          -5.1250    -0.6180    -0.3430 ca         1 4K6       0.069400
     23 C5          -6.2790    -1.4120    -0.3660 ca         1 4K6      -0.046000
     24 C6          -7.5370    -0.7970    -0.1470 ca         1 4K6      -0.096300
     25 C7          -8.7970    -1.6570    -0.1710 c3         1 4K6      -0.042800
     26 C1          -7.6100     0.6070     0.0920 ca         1 4K6      -0.052300
     27 C           -8.9500     1.2980     0.3320 c3         1 4K6      -0.047800
     28 H17          2.7210     1.4130     1.0800 ha         1 4K6       0.132500
     29 H16          5.1080     1.9100     0.9880 ha         1 4K6       0.131500
     30 H19          7.6180    -0.6030    -1.9170 h5         1 4K6       0.067600
     31 H18          7.2980     1.4840     1.7860 h5         1 4K6       0.067600
     32 H15          5.8430    -1.8690    -0.9890 ha         1 4K6       0.131500
     33 H14          3.4420    -2.3760    -0.9180 ha         1 4K6       0.132500
     34 H13          0.9800     0.8740     1.0810 hn         1 4K6       0.310500
     35 H11         -1.1400    -1.1440     1.0900 h1         1 4K6       0.075200
     36 H12         -1.2660     0.5500     1.5990 h1         1 4K6       0.075200
     37 H9          -1.3330     1.2540    -0.8200 hc         1 4K6       0.054700
     38 H10         -1.2540    -0.4320    -1.3120 hc         1 4K6       0.054700
     39 H           -3.6530     2.1700    -0.0210 hn         1 4K6       0.354000
     40 H4          -6.4520     2.4520     0.2880 ha         1 4K6       0.115000
     41 H5          -6.2000    -2.4800    -0.5500 ha         1 4K6       0.129000
     42 H7          -9.3250    -1.6120     0.7890 hc         1 4K6       0.040700
     43 H8          -9.4880    -1.3240    -0.9540 hc         1 4K6       0.040700
     44 H6          -8.5670    -2.7110    -0.3670 hc         1 4K6       0.040700
     45 H1          -9.6170     1.1740    -0.5290 hc         1 4K6       0.042367
     46 H2          -9.4540     0.8860     1.2140 hc         1 4K6       0.042367
     47 H3          -8.8280     2.3750     0.4980 hc         1 4K6       0.042367
@<TRIPOS>BOND
     1     1     2 2   
     2     2     3 1   
     3     2    14 1   
     4     3     4 ar  
     5     3    13 ar  
     6     4     5 ar  
     7     4    28 1   
     8     5     6 ar  
     9     5    29 1   
    10     6     7 1   
    11     6    12 ar  
    12     7     8 1   
    13     7    11 1   
    14     8     9 2   
    15     8    30 1   
    16     9    10 1   
    17    10    11 2   
    18    11    31 1   
    19    12    13 ar  
    20    12    32 1   
    21    13    33 1   
    22    14    15 1   
    23    14    34 1   
    24    15    16 1   
    25    15    35 1   
    26    15    36 1   
    27    16    17 1   
    28    16    37 1   
    29    16    38 1   
    30    17    18 1   
    31    17    21 2   
    32    18    19 1   
    33    18    39 1   
    34    19    20 ar  
    35    19    22 ar  
    36    20    26 ar  
    37    20    40 1   
    38    21    22 1   
    39    22    23 ar  
    40    23    24 ar  
    41    23    41 1   
    42    24    25 1   
    43    24    26 ar  
    44    25    42 1   
    45    25    43 1   
    46    25    44 1   
    47    26    27 1   
    48    27    45 1   
    49    27    46 1   
    50    27    47 1   
@<TRIPOS>SUBSTRUCTURE
     1 4K6         1 TEMP              0 ****  ****    0 ROOT
