@<TRIPOS>MOLECULE
4K7
   59    62     1     0     0
SMALL
No Charge or Current Charge


@<TRIPOS>ATOM
      1 C1          -7.5340    -2.3230     1.1300 ca         1 4K7      -0.112000
      2 C2          -8.3390    -0.8370    -0.6150 ca         1 4K7      -0.112000
      3 C3          -6.2410    -2.2660     0.5820 ca         1 4K7      -0.097500
      4 C4          -7.0460    -0.7800    -1.1640 ca         1 4K7      -0.097500
      5 C5           3.3070    -1.5240    -0.4740 ca         1 4K7      -0.072000
      6 C6           4.2490    -2.1710    -1.2940 ca         1 4K7      -0.103000
      7 C7           5.1130    -0.4420     0.7480 ca         1 4K7      -0.099000
      8 C8          -8.5900    -1.6080     0.5360 ca         1 4K7      -0.072300
      9 C9          -5.9900    -1.4950    -0.5690 ca         1 4K7      -0.110300
     10 C10          3.7340    -0.6570     0.5520 ca         1 4K7      -0.078300
     11 C11          5.6230    -1.9550    -1.0950 ca         1 4K7       0.117000
     12 C12          6.0560    -1.0870    -0.0710 ca         1 4K7       0.113000
     13 C13         -2.5450    -0.0040    -0.9140 c          1 4K7       0.662100
     14 C14         -2.0570     2.9670     1.5160 c6         1 4K7      -0.099400
     15 C15         -0.8310     3.6020     0.8370 c6         1 4K7      -0.063400
     16 C16          1.4290     3.1200    -0.3270 c5         1 4K7      -0.078400
     17 C17         -2.8300     2.0380     0.5570 c6         1 4K7       0.107000
     18 C18         -0.6720     1.6470    -0.7270 c6         1 4K7       0.118000
     19 C19          2.5650     2.1030     0.0060 c5         1 4K7       0.171800
     20 C20          0.7700     1.6350     1.4240 c5         1 4K7       0.187800
     21 C21          0.1300     2.5080     0.3040 c5         1 4K7      -0.078000
     22 C22         -9.9900    -1.6720     1.1270 c3         1 4K7      -0.047800
     23 C23         -4.5900    -1.4280    -1.1580 c3         1 4K7       0.155300
     24 N25         -1.9810     1.1020    -0.2440 n          1 4K7      -0.427800
     25 N26         -3.8350    -0.3230    -0.5780 ns         1 4K7      -0.524900
     26 N27          1.8580     0.9850     0.6680 n3         1 4K7      -0.745600
     27 O28         -1.9300    -0.6490    -1.7490 o          1 4K7      -0.645100
     28 Cl1          6.7800    -2.7800    -2.1410 cl         1 4K7      -0.181000
     29 Cl2          7.7730    -0.7900     0.2060 cl         1 4K7      -0.183000
     30 H1          -7.7140    -2.9240     2.0190 ha         1 4K7       0.111000
     31 H2          -9.1470    -0.2810    -1.0860 ha         1 4K7       0.111000
     32 H3          -5.4320    -2.8220     1.0540 ha         1 4K7       0.114500
     33 H4          -6.8660    -0.1770    -2.0520 ha         1 4K7       0.114500
     34 H6           3.9140    -2.8370    -2.0850 ha         1 4K7       0.133000
     35 H7           5.4550     0.2280     1.5330 ha         1 4K7       0.126000
     36 H8          -1.7410     2.3980     2.4010 hc         1 4K7       0.048200
     37 H9          -2.7290     3.7530     1.8860 hc         1 4K7       0.048200
     38 H10         -1.1550     4.2530     0.0130 hc         1 4K7       0.043700
     39 H11         -0.3080     4.2470     1.5570 hc         1 4K7       0.043700
     40 H12          1.6710     4.0980     0.1050 hc         1 4K7       0.047700
     41 H13          1.3300     3.2770    -1.4070 hc         1 4K7       0.047700
     42 H14         -3.5540     1.4740     1.1600 h1         1 4K7       0.043700
     43 H15         -3.4040     2.6580    -0.1460 h1         1 4K7       0.043700
     44 H16         -0.8770     2.2630    -1.6140 h1         1 4K7       0.067700
     45 H17         -0.0360     0.8190    -1.0730 h1         1 4K7       0.067700
     46 H18          3.0980     1.7720    -0.8950 h1         1 4K7       0.038200
     47 H19          3.3010     2.5630     0.6820 h1         1 4K7       0.038200
     48 H20          1.1600     2.2490     2.2490 h1         1 4K7       0.038700
     49 H21          0.0620     0.9060     1.8410 h1         1 4K7       0.038700
     50 H22        -10.5620    -2.4970     0.6870 hc         1 4K7       0.042700
     51 H23         -9.9590    -1.8260     2.2120 hc         1 4K7       0.042700
     52 H24        -10.5450    -0.7440     0.9440 hc         1 4K7       0.042700
     53 H25         -4.0570    -2.3680    -0.9630 h1         1 4K7       0.061200
     54 H26         -4.6490    -1.2900    -2.2460 h1         1 4K7       0.061200
     55 H29         -4.2830     0.2470     0.1240 hn         1 4K7       0.308500
     56 C24          2.7050     0.0460     1.4310 c3         1 4K7       0.236100
     57 H5           2.2430    -1.6870    -0.6370 ha         1 4K7       0.155000
     58 H27          2.0750    -0.7210     1.9010 h1         1 4K7       0.040200
     59 H28          3.2210     0.5780     2.2420 h1         1 4K7       0.040200
@<TRIPOS>BOND
     1     1     3 ar  
     2     1     8 ar  
     3     1    30 1   
     4     2     4 ar  
     5     2     8 ar  
     6     2    31 1   
     7     3     9 ar  
     8     3    32 1   
     9     4     9 ar  
    10     4    33 1   
    11     5     6 ar  
    12     5    10 ar  
    13     5    57 1   
    14     6    11 ar  
    15     6    34 1   
    16     7    10 ar  
    17     7    12 ar  
    18     7    35 1   
    19     8    22 1   
    20     9    23 1   
    21    10    56 1   
    22    11    12 ar  
    23    11    28 1   
    24    12    29 1   
    25    13    24 1   
    26    13    25 1   
    27    13    27 2   
    28    14    15 1   
    29    14    17 1   
    30    14    36 1   
    31    14    37 1   
    32    15    21 1   
    33    15    38 1   
    34    15    39 1   
    35    16    19 1   
    36    16    21 1   
    37    16    40 1   
    38    16    41 1   
    39    17    24 1   
    40    17    42 1   
    41    17    43 1   
    42    18    21 1   
    43    18    24 1   
    44    18    44 1   
    45    18    45 1   
    46    19    26 1   
    47    19    46 1   
    48    19    47 1   
    49    20    21 1   
    50    20    26 1   
    51    20    48 1   
    52    20    49 1   
    53    22    50 1   
    54    22    51 1   
    55    22    52 1   
    56    23    25 1   
    57    23    53 1   
    58    23    54 1   
    59    25    55 1   
    60    26    56 1   
    61    56    58 1   
    62    56    59 1   
@<TRIPOS>SUBSTRUCTURE
     1 4K7         1 TEMP              0 ****  ****    0 ROOT
