@<TRIPOS>MOLECULE
4K7
   59    62     1     0     0
SMALL
abcg2


@<TRIPOS>ATOM
      1 C1          -6.3090    -1.3610     1.4870 ca         1 4K7      -0.112000
      2 C2          -7.3350    -2.3970    -0.4020 ca         1 4K7      -0.112000
      3 C3          -5.2310    -0.9850     0.6980 ca         1 4K7      -0.097500
      4 C4          -6.2600    -2.0180    -1.1920 ca         1 4K7      -0.097500
      5 C5           2.3490    -1.2940    -0.8170 ca         1 4K7      -0.072000
      6 C6           3.1460    -2.0330    -1.6710 ca         1 4K7      -0.103000
      7 C7           3.9560    -1.5690     0.9370 ca         1 4K7      -0.099000
      8 C8          -7.3810    -2.0740     0.9530 ca         1 4K7      -0.072300
      9 C9          -5.1900    -1.3100    -0.6540 ca         1 4K7      -0.110300
     10 C10          2.7440    -1.0580     0.4980 ca         1 4K7      -0.078300
     11 C11          4.3570    -2.5470    -1.2240 ca         1 4K7       0.117000
     12 C12          4.7600    -2.3130     0.0830 ca         1 4K7       0.113000
     13 C13         -2.2070     0.7080    -1.2320 c          1 4K7       0.662100
     14 C14         -2.3850     3.3670     1.0340 c6         1 4K7      -0.099400
     15 C15         -0.9250     3.8000     1.0970 c6         1 4K7      -0.063400
     16 C16          1.4670     3.2460     0.3830 c5         1 4K7      -0.078400
     17 C17         -2.7850     3.0040    -0.3900 c6         1 4K7       0.107000
     18 C18         -0.5020     2.4260    -0.9410 c6         1 4K7       0.118000
     19 C19          2.3250     2.0030     0.6770 c5         1 4K7       0.171800
     20 C20          0.1480     1.4930     1.3030 c5         1 4K7       0.187800
     21 C21          0.0040     2.7660     0.4670 c5         1 4K7      -0.078000
     22 C22         -8.5550    -2.4730     1.8000 c3         1 4K7      -0.047800
     23 C23         -4.0080    -0.9420    -1.5150 c3         1 4K7       0.155300
     24 N25         -1.8890     2.0030    -0.9410 n          1 4K7      -0.427800
     25 N26         -3.5320     0.3880    -1.2250 ns         1 4K7      -0.524900
     26 N27          1.3660     0.9190     0.7860 n3         1 4K7      -0.745600
     27 O28         -1.3500    -0.1350    -1.4870 o          1 4K7      -0.645100
     28 CL1          5.3410    -3.4670    -2.3000 cl         1 4K7      -0.181000
     29 CL2          6.2630    -2.9300     0.6630 cl         1 4K7      -0.183000
     30 H1          -6.3170    -1.0940     2.5370 ha         1 4K7       0.111000
     31 H2          -8.1560    -2.9460    -0.8500 ha         1 4K7       0.111000
     32 H3          -4.4140    -0.4300     1.1440 ha         1 4K7       0.114500
     33 H4          -6.2570    -2.2750    -2.2450 ha         1 4K7       0.114500
     34 H6           2.8340    -2.2160    -2.6910 ha         1 4K7       0.133000
     35 H7           4.2860    -1.3890     1.9530 ha         1 4K7       0.126000
     36 H8          -2.5590     2.5070     1.6880 hc         1 4K7       0.048200
     37 H9          -3.0340     4.1690     1.3930 hc         1 4K7       0.048200
     38 H10         -0.8110     4.7520     0.5650 hc         1 4K7       0.043700
     39 H11         -0.6250     3.9890     2.1320 hc         1 4K7       0.043700
     40 H12          1.6540     4.0220     1.1280 hc         1 4K7       0.047700
     41 H13          1.6900     3.6830    -0.5930 hc         1 4K7       0.047700
     42 H14         -3.8220     2.6770    -0.4030 h1         1 4K7       0.043700
     43 H15         -2.7390     3.8970    -1.0230 h1         1 4K7       0.043700
     44 H16         -0.4150     3.3210    -1.5690 h1         1 4K7       0.067700
     45 H17          0.1160     1.6480    -1.3810 h1         1 4K7       0.067700
     46 H18          3.0590     1.7990    -0.1060 h1         1 4K7       0.038200
     47 H19          2.8860     2.1400     1.6150 h1         1 4K7       0.038200
     48 H20          0.2150     1.7580     2.3740 h1         1 4K7       0.038700
     49 H21         -0.6820     0.7920     1.1910 h1         1 4K7       0.038700
     50 H22         -8.7220    -3.5500     1.7640 hc         1 4K7       0.042700
     51 H23         -8.4110    -2.1920     2.8420 hc         1 4K7       0.042700
     52 H24         -9.4730    -1.9960     1.4520 hc         1 4K7       0.042700
     53 H25         -3.1910    -1.6420    -1.3360 h1         1 4K7       0.061200
     54 H26         -4.2800    -1.0510    -2.5710 h1         1 4K7       0.061200
     55 H29         -4.2240     1.1150    -1.2750 hn         1 4K7       0.308500
     56 C24          1.8470    -0.2740     1.4210 c3         1 4K7       0.236100
     57 H5           1.4070    -0.8910    -1.1690 ha         1 4K7       0.155000
     58 H27          0.9850    -0.8980     1.6780 h1         1 4K7       0.040200
     59 H28          2.3730    -0.0720     2.3690 h1         1 4K7       0.040200
@<TRIPOS>BOND
     1     1     3 ar  
     2     1     8 ar  
     3     1    30 1   
     4     2     4 ar  
     5     2     8 ar  
     6     2    31 1   
     7     3     9 ar  
     8     3    32 1   
     9     4     9 ar  
    10     4    33 1   
    11     5     6 ar  
    12     5    10 ar  
    13     5    57 1   
    14     6    11 ar  
    15     6    34 1   
    16     7    10 ar  
    17     7    12 ar  
    18     7    35 1   
    19     8    22 1   
    20     9    23 1   
    21    10    56 1   
    22    11    12 ar  
    23    11    28 1   
    24    12    29 1   
    25    13    24 1   
    26    13    25 1   
    27    13    27 2   
    28    14    15 1   
    29    14    17 1   
    30    14    36 1   
    31    14    37 1   
    32    15    21 1   
    33    15    38 1   
    34    15    39 1   
    35    16    19 1   
    36    16    21 1   
    37    16    40 1   
    38    16    41 1   
    39    17    24 1   
    40    17    42 1   
    41    17    43 1   
    42    18    21 1   
    43    18    24 1   
    44    18    44 1   
    45    18    45 1   
    46    19    26 1   
    47    19    46 1   
    48    19    47 1   
    49    20    21 1   
    50    20    26 1   
    51    20    48 1   
    52    20    49 1   
    53    22    50 1   
    54    22    51 1   
    55    22    52 1   
    56    23    25 1   
    57    23    53 1   
    58    23    54 1   
    59    25    55 1   
    60    26    56 1   
    61    56    58 1   
    62    56    59 1   
@<TRIPOS>SUBSTRUCTURE
     1 4K7         1 TEMP              0 ****  ****    0 ROOT
