@<TRIPOS>MOLECULE
4K8
   19    20     1     0     0
SMALL
bcc


@<TRIPOS>ATOM
      1 C10          2.6650    -1.1460    -0.0300 ca         1 4K8      -0.098000
      2 O01         -3.6420    -0.6840     0.0240 o          1 4K8      -0.806800
      3 C02         -2.8490     0.2710     0.0130 c          1 4K8       0.821100
      4 O03         -3.1300     1.4860     0.0130 o          1 4K8      -0.806800
      5 C04         -1.3600    -0.0700    -0.0020 ca         1 4K8       0.355800
      6 C05         -0.4170     0.9260    -0.0030 ca         1 4K8      -0.227300
      7 C06          0.9560     0.6050    -0.0120 ca         1 4K8      -0.020000
      8 C07          1.9860     1.5740    -0.0120 ca         1 4K8      -0.117000
      9 C08          3.2970     1.1810    -0.0200 ca         1 4K8      -0.141000
     10 C09          3.6430    -0.1890    -0.0290 ca         1 4K8      -0.163000
     11 C11          1.3060    -0.7650    -0.0210 ca         1 4K8      -0.181300
     12 C12          0.2460    -1.7030    -0.0220 ca         1 4K8       0.385200
     13 N13         -1.0160    -1.3820    -0.0120 nb         1 4K8      -0.616000
     14 H1           2.9210    -2.1990    -0.0380 ha         1 4K8       0.117000
     15 H3          -0.7300     1.9620     0.0060 ha         1 4K8       0.159000
     16 H4           1.7270     2.6250    -0.0040 ha         1 4K8       0.126000
     17 H5           4.0830     1.9250    -0.0190 ha         1 4K8       0.110000
     18 H6           4.6860    -0.4750    -0.0350 ha         1 4K8       0.111000
     19 H7           0.4880    -2.7630    -0.0300 h4         1 4K8      -0.006900
@<TRIPOS>BOND
     1     1    10 ar  
     2     1    11 ar  
     3     1    14 1   
     4     2     3 1   
     5     3     4 1   
     6     3     5 1   
     7     5     6 ar  
     8     5    13 ar  
     9     6     7 ar  
    10     6    15 1   
    11     7     8 ar  
    12     7    11 ar  
    13     8     9 ar  
    14     8    16 1   
    15     9    10 ar  
    16     9    17 1   
    17    10    18 1   
    18    11    12 ar  
    19    12    13 ar  
    20    12    19 1   
@<TRIPOS>SUBSTRUCTURE
     1 4K8         1 TEMP              0 ****  ****    0 ROOT
