@<TRIPOS>MOLECULE
4K8
   19    20     1     0     0
SMALL
No Charge or Current Charge


@<TRIPOS>ATOM
      1 C10          2.6710    -1.1570    -0.0300 ca         1 4K8      -0.080000
      2 O01         -3.7420    -0.5880     0.0110 o          1 4K8      -0.701500
      3 C02         -2.8890     0.2960     0.0110 c          1 4K8       0.610500
      4 O03         -3.1950     1.4850     0.0200 o          1 4K8      -0.701500
      5 C04         -1.3840    -0.0930    -0.0000 ca         1 4K8       0.290500
      6 C05         -0.3980     0.9240    -0.0000 ca         1 4K8      -0.144000
      7 C06          0.9650     0.5830    -0.0100 ca         1 4K8      -0.020000
      8 C07          1.9680     1.5700    -0.0110 ca         1 4K8      -0.099000
      9 C08          3.3220     1.1910    -0.0210 ca         1 4K8      -0.123000
     10 C09          3.6730    -0.1710    -0.0310 ca         1 4K8      -0.145000
     11 C11          1.3150    -0.7780    -0.0200 ca         1 4K8      -0.116000
     12 C12          0.2880    -1.7390    -0.0190 ca         1 4K8       0.319900
     13 N13         -1.0250    -1.4170    -0.0100 nb         1 4K8      -0.616000
     14 H1           2.9480    -2.2100    -0.0380 ha         1 4K8       0.099000
     15 H3          -0.6940     1.9690     0.0070 ha         1 4K8       0.141000
     16 H4           1.7020     2.6250    -0.0030 ha         1 4K8       0.108000
     17 H5           4.0990     1.9530    -0.0220 ha         1 4K8       0.092000
     18 H6           4.7210    -0.4620    -0.0390 ha         1 4K8       0.093000
     19 H7           0.5190    -2.8030    -0.0270 h4         1 4K8      -0.006900
@<TRIPOS>BOND
     1     1    10 ar  
     2     1    11 ar  
     3     1    14 1   
     4     2     3 1   
     5     3     4 1   
     6     3     5 1   
     7     5     6 ar  
     8     5    13 ar  
     9     6     7 ar  
    10     6    15 1   
    11     7     8 ar  
    12     7    11 ar  
    13     8     9 ar  
    14     8    16 1   
    15     9    10 ar  
    16     9    17 1   
    17    10    18 1   
    18    11    12 ar  
    19    12    13 ar  
    20    12    19 1   
@<TRIPOS>SUBSTRUCTURE
     1 4K8         1 TEMP              0 ****  ****    0 ROOT
