@<TRIPOS>MOLECULE
4K9
   38    40     1     0     0
SMALL
bcc


@<TRIPOS>ATOM
      1 C2          -3.7890     1.2090     0.9470 ca         1 4K9      -0.117000
      2 C3          -5.5960    -0.6230    -0.0550 ca         1 4K9      -0.117000
      3 C4          -4.2310    -0.8670    -0.2160 ca         1 4K9      -0.104300
      4 C10          0.3660     0.5670    -0.1940 ca         1 4K9      -0.092600
      5 C1          -5.1460     1.4330     1.0880 ca         1 4K9      -0.115000
      6 C5          -3.3260     0.0720     0.2820 ca         1 4K9       0.050600
      7 C6          -1.5580    -1.5810     0.1020 c6         1 4K9       0.099000
      8 C7          -2.2770    -2.2270    -1.0690 c6         1 4K9      -0.101400
      9 C8          -3.7830    -2.1540    -0.8600 c6         1 4K9      -0.027100
     10 O2           5.2670     0.4410     1.4500 o          1 4K9      -0.596300
     11 O1           5.4760     0.7980    -1.0350 o          1 4K9      -0.596300
     12 N1           5.1930    -1.4870    -0.1100 n8         1 4K9      -0.892700
     13 C13          3.1110     0.3130    -0.0200 ca         1 4K9      -0.304500
     14 C12          2.3320     0.0720     1.1050 ca         1 4K9      -0.043000
     15 C11          0.9560     0.1890     1.0090 ca         1 4K9      -0.114000
     16 C14          2.5380     0.6920    -1.2250 ca         1 4K9      -0.043000
     17 C15          1.1620     0.8360    -1.3020 ca         1 4K9      -0.114000
     18 N           -1.9320    -0.1680     0.1680 n          1 4K9      -0.380000
     19 C           -6.0590     0.5160     0.5780 ca         1 4K9      -0.133000
     20 H1          -3.0880     1.9130     1.3730 ha         1 4K9       0.146000
     21 H2          -6.3020    -1.3500    -0.4380 ha         1 4K9       0.129000
     22 H3          -5.4900     2.3190     1.6050 ha         1 4K9       0.136000
     23 H4          -1.8330    -2.0620     1.0440 h1         1 4K9       0.058200
     24 H5          -0.4830    -1.6760    -0.0120 h1         1 4K9       0.058200
     25 H6          -1.9840    -1.7150    -1.9880 hc         1 4K9       0.052700
     26 H7          -1.9620    -3.2660    -1.1680 hc         1 4K9       0.052700
     27 H8          -4.0990    -2.9800    -0.2160 hc         1 4K9       0.053200
     28 H9          -4.3080    -2.2970    -1.8060 hc         1 4K9       0.053200
     29 H10          4.8220    -2.0830     0.6210 hn         1 4K9       0.422300
     30 H11          4.9680    -1.8420    -1.0320 hn         1 4K9       0.422300
     31 H12          2.7790    -0.2050     2.0500 ha         1 4K9       0.157500
     32 H13          0.3460    -0.0030     1.8830 ha         1 4K9       0.151000
     33 H14          3.1470     0.8890    -2.0960 ha         1 4K9       0.157500
     34 H15          0.7120     1.1500    -2.2340 ha         1 4K9       0.151000
     35 H16         -7.1220     0.6850     0.6860 ha         1 4K9       0.134000
     36 C9          -1.1070     0.8210    -0.2770 c          1 4K9       0.673700
     37 S            4.8720     0.1090     0.0920 sy         1 4K9       1.285200
     38 O           -1.5000     1.8970    -0.6910 o          1 4K9      -0.554100
@<TRIPOS>BOND
     1     1     5 ar  
     2     1     6 ar  
     3     1    20 1   
     4     2     3 ar  
     5     2    19 ar  
     6     2    21 1   
     7     3     6 ar  
     8     3     9 1   
     9     4    15 ar  
    10     4    17 ar  
    11     4    36 1   
    12     5    19 ar  
    13     5    22 1   
    14     6    18 1   
    15     7     8 1   
    16     7    18 1   
    17     7    23 1   
    18     7    24 1   
    19     8     9 1   
    20     8    25 1   
    21     8    26 1   
    22     9    27 1   
    23     9    28 1   
    24    10    37 2   
    25    11    37 2   
    26    12    29 1   
    27    12    30 1   
    28    12    37 1   
    29    13    14 ar  
    30    13    16 ar  
    31    13    37 1   
    32    14    15 ar  
    33    14    31 1   
    34    15    32 1   
    35    16    17 ar  
    36    16    33 1   
    37    17    34 1   
    38    18    36 1   
    39    19    35 1   
    40    36    38 2   
@<TRIPOS>SUBSTRUCTURE
     1 4K9         1 TEMP              0 ****  ****    0 ROOT
