@<TRIPOS>MOLECULE
4K9
   38    40     1     0     0
SMALL
No Charge or Current Charge


@<TRIPOS>ATOM
      1 C2          -3.6860     1.3090     0.6840 ca         1 4K9      -0.099000
      2 C3          -5.6950    -0.5960     0.2480 ca         1 4K9      -0.099000
      3 C4          -4.3510    -0.9320    -0.0040 ca         1 4K9      -0.104300
      4 C10          0.4210     0.5410    -0.3820 ca         1 4K9      -0.092600
      5 C1          -5.0300     1.6360     0.9280 ca         1 4K9      -0.097000
      6 C5          -3.3230     0.0140     0.2500 ca         1 4K9      -0.042000
      7 C6          -1.5950    -1.7220    -0.2090 c6         1 4K9       0.099000
      8 C7          -2.6110    -2.4610    -1.0980 c6         1 4K9      -0.101400
      9 C8          -4.0280    -2.3450    -0.5030 c6         1 4K9      -0.027100
     10 O2           5.2180    -0.1580     1.8070 o          1 4K9      -0.525500
     11 O1           5.6880     1.3290    -0.2370 o          1 4K9      -0.525500
     12 N1           5.3580    -1.1050    -0.4380 n8         1 4K9      -1.003100
     13 C13          3.2090     0.3540     0.1150 ca         1 4K9      -0.304500
     14 C12          2.2880    -0.2290     1.0100 ca         1 4K9      -0.025000
     15 C11          0.9080    -0.1310     0.7650 ca         1 4K9      -0.096000
     16 C14          2.7340     1.0430    -1.0190 ca         1 4K9      -0.025000
     17 C15          1.3530     1.1390    -1.2580 ca         1 4K9      -0.096000
     18 N           -1.9500    -0.2830    -0.1050 n          1 4K9      -0.220400
     19 C           -6.0350     0.6820     0.7150 ca         1 4K9      -0.115000
     20 H1          -2.9250     2.0660     0.8550 ha         1 4K9       0.128000
     21 H2          -6.4810    -1.3290     0.0770 ha         1 4K9       0.111000
     22 H3          -5.2920     2.6320     1.2790 ha         1 4K9       0.118000
     23 H4          -1.5840    -2.1660     0.7960 h1         1 4K9       0.058200
     24 H5          -0.5940    -1.8480    -0.6440 h1         1 4K9       0.058200
     25 H6          -2.5970    -2.0260    -2.1070 hc         1 4K9       0.052700
     26 H7          -2.3300    -3.5170    -1.2040 hc         1 4K9       0.052700
     27 H8          -4.1240    -3.0450     0.3390 hc         1 4K9       0.053200
     28 H9          -4.7670    -2.6630    -1.2510 hc         1 4K9       0.053200
     29 H10          5.8120    -1.6680     0.2780 hn         1 4K9       0.477500
     30 H11          4.4490    -1.5460    -0.5550 hn         1 4K9       0.477500
     31 H12          2.6330    -0.7520     1.9010 ha         1 4K9       0.139500
     32 H13          0.2200    -0.5630     1.4880 ha         1 4K9       0.133000
     33 H14          3.4300     1.5050    -1.7180 ha         1 4K9       0.139500
     34 H15          1.0070     1.6760    -2.1390 ha         1 4K9       0.133000
     35 H16         -7.0760     0.9350     0.9040 ha         1 4K9       0.116000
     36 C9          -1.0660     0.6790    -0.6630 c          1 4K9       0.606700
     37 S            4.9750     0.2330     0.4200 sy         1 4K9       1.143600
     38 O           -1.4890     1.6490    -1.2850 o          1 4K9      -0.554100
@<TRIPOS>BOND
     1     1     5 ar  
     2     1     6 ar  
     3     1    20 1   
     4     2     3 ar  
     5     2    19 ar  
     6     2    21 1   
     7     3     6 ar  
     8     3     9 1   
     9     4    15 ar  
    10     4    17 ar  
    11     4    36 1   
    12     5    19 ar  
    13     5    22 1   
    14     6    18 1   
    15     7     8 1   
    16     7    18 1   
    17     7    23 1   
    18     7    24 1   
    19     8     9 1   
    20     8    25 1   
    21     8    26 1   
    22     9    27 1   
    23     9    28 1   
    24    10    37 2   
    25    11    37 2   
    26    12    29 1   
    27    12    30 1   
    28    12    37 1   
    29    13    14 ar  
    30    13    16 ar  
    31    13    37 1   
    32    14    15 ar  
    33    14    31 1   
    34    15    32 1   
    35    16    17 ar  
    36    16    33 1   
    37    17    34 1   
    38    18    36 1   
    39    19    35 1   
    40    36    38 2   
@<TRIPOS>SUBSTRUCTURE
     1 4K9         1 TEMP              0 ****  ****    0 ROOT
