@<TRIPOS>MOLECULE
4KA
   15    16     1     0     0
SMALL
bcc


@<TRIPOS>ATOM
      1 C1           0.0760    -0.4600     0.0130 cc         1 4KA       0.166300
      2 C2           0.6450     0.8220    -0.0350 cc         1 4KA      -0.175600
      3 N3          -1.5640     1.0400    -0.0990 nd         1 4KA      -0.467800
      4 N4          -0.3890     1.6960    -0.1000 na         1 4KA      -0.054600
      5 C5          -1.3350    -0.2490    -0.0320 cc         1 4KA       0.289300
      6 N6           2.1340    -0.7260     0.0810 na         1 4KA       0.038400
      7 N7           1.0040    -1.4150     0.0850 nd         1 4KA      -0.480800
      8 C8           2.0110     0.6200     0.0120 cd         1 4KA      -0.184300
      9 C9          -2.4300    -1.2550    -0.0110 c3         1 4KA      -0.115400
     10 H1          -0.3770     2.6990    -0.1570 hn         1 4KA       0.329700
     11 H2           3.0100    -1.2230     0.1330 hn         1 4KA       0.319700
     12 H3           2.8660     1.2730     0.0030 h4         1 4KA       0.182000
     13 H4          -2.3850    -1.8660     0.8920 hc         1 4KA       0.051033
     14 H5          -3.4040    -0.7710    -0.0450 hc         1 4KA       0.051033
     15 H6          -2.3560    -1.9330    -0.8630 hc         1 4KA       0.051033
@<TRIPOS>BOND
     1     1     2 1   
     2     1     5 1   
     3     1     7 2   
     4     2     4 1   
     5     2     8 2   
     6     3     4 1   
     7     3     5 2   
     8     4    10 1   
     9     5     9 1   
    10     6     7 1   
    11     6     8 1   
    12     6    11 1   
    13     8    12 1   
    14     9    13 1   
    15     9    14 1   
    16     9    15 1   
@<TRIPOS>SUBSTRUCTURE
     1 4KA         1 TEMP              0 ****  ****    0 ROOT
