@<TRIPOS>MOLECULE
4KA
   15    16     1     0     0
SMALL
No Charge or Current Charge


@<TRIPOS>ATOM
      1 C1           0.0500    -0.5010     0.0170 cc         1 4KA       0.101000
      2 C2           0.6090     0.6880    -0.0280 cc         1 4KA      -0.161000
      3 N3          -1.6170     1.1330    -0.1080 nd         1 4KA      -0.467800
      4 N4          -0.3220     1.6730    -0.1010 na         1 4KA      -0.054200
      5 C5          -1.3520    -0.1980    -0.0350 cc         1 4KA       0.289300
      6 N6           2.1420    -0.7430     0.0830 na         1 4KA       0.038800
      7 N7           0.9150    -1.4870     0.0880 nd         1 4KA      -0.480800
      8 C8           1.9490     0.6710     0.0080 cd         1 4KA      -0.217000
      9 C9          -2.4150    -1.2600    -0.0100 c3         1 4KA      -0.115400
     10 H1          -0.1550     2.6790    -0.1460 hn         1 4KA       0.380000
     11 H2           3.0430    -1.2190     0.1300 hn         1 4KA       0.370000
     12 H3           2.7250     1.4280    -0.0090 h4         1 4KA       0.164000
     13 H4          -2.3380    -1.8610     0.9020 hc         1 4KA       0.051033
     14 H5          -3.4180    -0.8190    -0.0430 hc         1 4KA       0.051033
     15 H6          -2.3100    -1.9300    -0.8710 hc         1 4KA       0.051033
@<TRIPOS>BOND
     1     1     2 1   
     2     1     5 1   
     3     1     7 2   
     4     2     4 1   
     5     2     8 2   
     6     3     4 1   
     7     3     5 2   
     8     4    10 1   
     9     5     9 1   
    10     6     7 1   
    11     6     8 1   
    12     6    11 1   
    13     8    12 1   
    14     9    13 1   
    15     9    14 1   
    16     9    15 1   
@<TRIPOS>SUBSTRUCTURE
     1 4KA         1 TEMP              0 ****  ****    0 ROOT
