@<TRIPOS>MOLECULE
4KB
   40    42     1     0     0
SMALL
bcc


@<TRIPOS>ATOM
      1 C3          -2.9200    -1.5230     0.6310 ca         1 4KB      -0.134000
      2 C4          -2.6850    -0.1520     0.5380 ca         1 4KB      -0.106300
      3 C9          -0.1090     2.1440     0.0130 c          1 4KB       0.676700
      4 C10          1.1120     1.2770     0.0520 ca         1 4KB      -0.088600
      5 C5          -1.4390     0.4080     1.1840 c6         1 4KB       0.149300
      6 C6          -2.3540     2.6150     0.7930 c6         1 4KB       0.091000
      7 C7          -3.3750     2.1470    -0.2300 c6         1 4KB      -0.054100
      8 C8          -3.5980     0.6620    -0.1210 ca         1 4KB      -0.064300
      9 O           -0.0710     3.1830    -0.6320 o          1 4KB      -0.587100
     10 C11          1.7280     0.9330    -1.1470 ca         1 4KB      -0.115000
     11 C12          2.9110     0.2140    -1.1440 ca         1 4KB      -0.042500
     12 C15          1.7010     0.9160     1.2600 ca         1 4KB      -0.115000
     13 C14          2.8960     0.2150     1.2750 ca         1 4KB      -0.042500
     14 C13          3.4900    -0.1320     0.0700 ca         1 4KB      -0.305500
     15 S            5.0460    -0.9890     0.0810 sy         1 4KB       1.283200
     16 N1           6.2240     0.1540     0.0760 n8         1 4KB      -0.886700
     17 O1           5.1590    -1.6960     1.3450 o          1 4KB      -0.598300
     18 O2           5.1680    -1.7120    -1.1730 o          1 4KB      -0.598300
     19 N           -1.1770     1.7640     0.7410 n          1 4KB      -0.462800
     20 C18         -4.7330     0.0780    -0.6870 ca         1 4KB      -0.176000
     21 C17         -4.9650    -1.2810    -0.5990 ca         1 4KB       0.054100
     22 O17         -6.0460    -1.9010    -1.1250 oh         1 4KB      -0.516100
     23 C16         -4.0460    -2.0990     0.0730 ca         1 4KB       0.125100
     24 O16         -4.2290    -3.4330     0.1880 oh         1 4KB      -0.493100
     25 H1          -2.2090    -2.1600     1.1470 ha         1 4KB       0.150000
     26 H2          -1.5480     0.3990     2.2740 h1         1 4KB       0.064200
     27 H3          -0.5930    -0.2350     0.9500 h1         1 4KB       0.064200
     28 H4          -2.0700     3.6510     0.6270 h1         1 4KB       0.065700
     29 H5          -2.7680     2.5430     1.8030 h1         1 4KB       0.065700
     30 H6          -4.3140     2.6840    -0.0780 hc         1 4KB       0.062200
     31 H7          -3.0270     2.4050    -1.2340 hc         1 4KB       0.062200
     32 H8           1.2800     1.2150    -2.0900 ha         1 4KB       0.148500
     33 H9           3.3720    -0.0630    -2.0830 ha         1 4KB       0.157500
     34 H10          1.2380     1.1870     2.2000 ha         1 4KB       0.148500
     35 H11          3.3480    -0.0530     2.2200 ha         1 4KB       0.157500
     36 H12          6.2380     0.7300     0.9110 hn         1 4KB       0.422300
     37 H13          6.2410     0.7210    -0.7640 hn         1 4KB       0.422300
     38 H14         -5.4540     0.7050    -1.2040 ha         1 4KB       0.132000
     39 H15         -6.6180    -1.2710    -1.5770 ho         1 4KB       0.437000
     40 H16         -5.0420    -3.7030    -0.2560 ho         1 4KB       0.444000
@<TRIPOS>BOND
     1     1     2 ar  
     2     1    23 ar  
     3     1    25 1   
     4     2     5 1   
     5     2     8 ar  
     6     3     4 1   
     7     3     9 2   
     8     3    19 1   
     9     4    10 ar  
    10     4    12 ar  
    11     5    19 1   
    12     5    26 1   
    13     5    27 1   
    14     6     7 1   
    15     6    19 1   
    16     6    28 1   
    17     6    29 1   
    18     7     8 1   
    19     7    30 1   
    20     7    31 1   
    21     8    20 ar  
    22    10    11 ar  
    23    10    32 1   
    24    11    14 ar  
    25    11    33 1   
    26    12    13 ar  
    27    12    34 1   
    28    13    14 ar  
    29    13    35 1   
    30    14    15 1   
    31    15    16 1   
    32    15    17 2   
    33    15    18 2   
    34    16    36 1   
    35    16    37 1   
    36    20    21 ar  
    37    20    38 1   
    38    21    22 1   
    39    21    23 ar  
    40    22    39 1   
    41    23    24 1   
    42    24    40 1   
@<TRIPOS>SUBSTRUCTURE
     1 4KB         1 TEMP              0 ****  ****    0 ROOT
