@<TRIPOS>MOLECULE
4KB
   40    42     1     0     0
SMALL
No Charge or Current Charge


@<TRIPOS>ATOM
      1 C3          -3.0540    -1.6340     0.6040 ca         1 4KB      -0.116000
      2 C4          -2.7780    -0.2590     0.4710 ca         1 4KB      -0.106300
      3 C9          -0.0490     2.0930    -0.2340 c          1 4KB       0.609700
      4 C10          1.2560     1.3260    -0.1210 ca         1 4KB      -0.088600
      5 C5          -1.4050     0.2730     0.9140 c6         1 4KB       0.149300
      6 C6          -2.3480     2.5600     0.7090 c6         1 4KB       0.091000
      7 C7          -3.4830     2.0930    -0.2210 c6         1 4KB      -0.054100
      8 C8          -3.7650     0.6000    -0.0660 ca         1 4KB      -0.064300
      9 O           -0.1210     3.0900    -0.9440 o          1 4KB      -0.587100
     10 C11          2.1240     1.2680    -1.2330 ca         1 4KB      -0.097000
     11 C12          3.3480     0.5810    -1.1590 ca         1 4KB      -0.024500
     12 C15          1.6640     0.7140     1.0870 ca         1 4KB      -0.097000
     13 C14          2.8870     0.0260     1.1680 ca         1 4KB      -0.024500
     14 C13          3.7330    -0.0490     0.0430 ca         1 4KB      -0.305500
     15 S            5.2970    -0.9250     0.1500 sy         1 4KB       1.141600
     16 N1           6.2850     0.2500     0.7120 n8         1 4KB      -0.997100
     17 O1           5.2520    -1.9310     1.2110 o          1 4KB      -0.527500
     18 O2           5.8070    -1.2020    -1.1900 o          1 4KB      -0.527500
     19 N           -1.1500     1.6980     0.5620 n          1 4KB      -0.395800
     20 C18         -5.0090     0.0790    -0.4730 ca         1 4KB      -0.158000
     21 C17         -5.2770    -1.2930    -0.3380 ca         1 4KB       0.054100
     22 O17         -6.4880    -1.8010    -0.7320 oh         1 4KB      -0.555100
     23 C16         -4.2960    -2.1490     0.2020 ca         1 4KB       0.125100
     24 O16         -4.5630    -3.4800     0.3300 oh         1 4KB      -0.532100
     25 H1          -2.3050    -2.3050     1.0170 ha         1 4KB       0.132000
     26 H2          -1.3170     0.1570     2.0040 h1         1 4KB       0.064200
     27 H3          -0.6420    -0.3700     0.4560 h1         1 4KB       0.064200
     28 H4          -2.1020     3.6110     0.5020 h1         1 4KB       0.065700
     29 H5          -2.6920     2.5100     1.7520 h1         1 4KB       0.065700
     30 H6          -4.3890     2.6770    -0.0130 hc         1 4KB       0.062200
     31 H7          -3.2090     2.3020    -1.2640 hc         1 4KB       0.062200
     32 H8           1.8430     1.7480    -2.1680 ha         1 4KB       0.130500
     33 H9           3.9900     0.5430    -2.0380 ha         1 4KB       0.139500
     34 H10          1.0460     0.7850     1.9790 ha         1 4KB       0.130500
     35 H11          3.1770    -0.4370     2.1100 ha         1 4KB       0.139500
     36 H12          5.7570     1.0910     0.4950 hn         1 4KB       0.477500
     37 H13          7.0200     0.2350     0.0090 hn         1 4KB       0.477500
     38 H14         -5.7610     0.7440    -0.8910 ha         1 4KB       0.114000
     39 H15         -7.0410    -1.0660    -1.0810 ho         1 4KB       0.476000
     40 H16         -5.4780    -3.6050    -0.0110 ho         1 4KB       0.483000
@<TRIPOS>BOND
     1     1     2 ar  
     2     1    23 ar  
     3     1    25 1   
     4     2     5 1   
     5     2     8 ar  
     6     3     4 1   
     7     3     9 2   
     8     3    19 1   
     9     4    10 ar  
    10     4    12 ar  
    11     5    19 1   
    12     5    26 1   
    13     5    27 1   
    14     6     7 1   
    15     6    19 1   
    16     6    28 1   
    17     6    29 1   
    18     7     8 1   
    19     7    30 1   
    20     7    31 1   
    21     8    20 ar  
    22    10    11 ar  
    23    10    32 1   
    24    11    14 ar  
    25    11    33 1   
    26    12    13 ar  
    27    12    34 1   
    28    13    14 ar  
    29    13    35 1   
    30    14    15 1   
    31    15    16 1   
    32    15    17 2   
    33    15    18 2   
    34    16    36 1   
    35    16    37 1   
    36    20    21 ar  
    37    20    38 1   
    38    21    22 1   
    39    21    23 ar  
    40    22    39 1   
    41    23    24 1   
    42    24    40 1   
@<TRIPOS>SUBSTRUCTURE
     1 4KB         1 TEMP              0 ****  ****    0 ROOT
