@<TRIPOS>MOLECULE
4KC
   38    40     1     0     0
SMALL
bcc


@<TRIPOS>ATOM
      1 C3          -3.1260    -2.2690     0.1830 ca         1 4KC      -0.120000
      2 C4          -3.1270    -0.8800     0.2900 ca         1 4KC      -0.112300
      3 C9          -0.9620     1.8270     0.1580 c          1 4KC       0.677700
      4 C10          0.3700     1.1390     0.1490 ca         1 4KC      -0.088600
      5 C5          -2.0270    -0.2090     1.0810 c6         1 4KC       0.144300
      6 C6          -3.2700     1.8550     0.9040 c6         1 4KC       0.091000
      7 C7          -4.1720     1.3620    -0.2150 c6         1 4KC      -0.060100
      8 C8          -4.1430    -0.1410    -0.3170 ca         1 4KC      -0.064300
      9 O           -1.0700     2.9230    -0.3710 o          1 4KC      -0.583100
     10 C11          1.0090     0.9160    -1.0650 ca         1 4KC      -0.117000
     11 C12          2.2710     0.3430    -1.0950 ca         1 4KC      -0.036500
     12 C15          1.0130     0.8180     1.3410 ca         1 4KC      -0.117000
     13 C14          2.2870     0.2770     1.3240 ca         1 4KC      -0.036500
     14 C13          2.9000     0.0380     0.1030 ca         1 4KC      -0.252500
     15 S            4.5270    -0.6660     0.0850 sy         1 4KC       1.267200
     16 N1           5.4580     0.6850     0.2610 n8         1 4KC      -0.893700
     17 O1           4.7260    -1.4500     1.2950 o          1 4KC      -0.613800
     18 O2           4.7120    -1.3160    -1.2050 o          1 4KC      -0.613800
     19 N           -1.9710     1.2130     0.8070 n          1 4KC      -0.461800
     20 C18         -5.1350    -0.8160    -1.0270 ca         1 4KC      -0.126000
     21 C17         -5.1280    -2.1970    -1.1340 ca         1 4KC      -0.120000
     22 C16         -4.1160    -2.9300    -0.5240 ca         1 4KC      -0.126000
     23 H1          -2.3330    -2.8370     0.6570 ha         1 4KC       0.130000
     24 H2          -2.1910    -0.3660     2.1510 h1         1 4KC       0.063200
     25 H3          -1.0750    -0.6790     0.8400 h1         1 4KC       0.063200
     26 H4          -3.1550     2.9350     0.8750 h1         1 4KC       0.064700
     27 H5          -3.6940     1.5930     1.8770 h1         1 4KC       0.064700
     28 H6          -5.1940     1.7060    -0.0420 hc         1 4KC       0.063200
     29 H7          -3.8520     1.8060    -1.1630 hc         1 4KC       0.063200
     30 H8           0.5190     1.1700    -1.9960 ha         1 4KC       0.148000
     31 H9           2.7480     0.1470    -2.0450 ha         1 4KC       0.157500
     32 H10          0.5260     0.9970     2.2920 ha         1 4KC       0.148000
     33 H11          2.7820     0.0410     2.2560 ha         1 4KC       0.157500
     34 H12          5.5460     1.2170    -0.5990 hn         1 4KC       0.420800
     35 H13          6.3760     0.4600     0.6340 hn         1 4KC       0.420800
     36 H14         -5.9280    -0.2450    -1.4970 ha         1 4KC       0.131000
     37 H15         -5.9090    -2.7010    -1.6880 ha         1 4KC       0.133000
     38 H16         -4.0990    -4.0090    -0.6030 ha         1 4KC       0.134000
@<TRIPOS>BOND
     1     1     2 ar  
     2     1    22 ar  
     3     1    23 1   
     4     2     5 1   
     5     2     8 ar  
     6     3     4 1   
     7     3     9 2   
     8     3    19 1   
     9     4    10 ar  
    10     4    12 ar  
    11     5    19 1   
    12     5    24 1   
    13     5    25 1   
    14     6     7 1   
    15     6    19 1   
    16     6    26 1   
    17     6    27 1   
    18     7     8 1   
    19     7    28 1   
    20     7    29 1   
    21     8    20 ar  
    22    10    11 ar  
    23    10    30 1   
    24    11    14 ar  
    25    11    31 1   
    26    12    13 ar  
    27    12    32 1   
    28    13    14 ar  
    29    13    33 1   
    30    14    15 1   
    31    15    16 1   
    32    15    17 2   
    33    15    18 2   
    34    16    34 1   
    35    16    35 1   
    36    20    21 ar  
    37    20    36 1   
    38    21    22 ar  
    39    21    37 1   
    40    22    38 1   
@<TRIPOS>SUBSTRUCTURE
     1 4KC         1 TEMP              0 ****  ****    0 ROOT
