@<TRIPOS>MOLECULE
4KC
   38    40     1     0     0
SMALL
No Charge or Current Charge


@<TRIPOS>ATOM
      1 C3          -3.3720    -2.3770     0.2810 ca         1 4KC      -0.102000
      2 C4          -3.2890    -0.9710     0.2710 ca         1 4KC      -0.112300
      3 C9          -0.9090     1.7880    -0.1730 c          1 4KC       0.610700
      4 C10          0.4890     1.2020    -0.0960 ca         1 4KC      -0.088600
      5 C5          -2.0100    -0.2940     0.7890 c6         1 4KC       0.144300
      6 C6          -3.2600     1.8500     0.7540 c6         1 4KC       0.091000
      7 C7          -4.3090     1.3110    -0.2370 c6         1 4KC      -0.060100
      8 C8          -4.3800    -0.2140    -0.2140 ca         1 4KC      -0.064300
      9 O           -1.1120     2.8220    -0.8000 o          1 4KC      -0.583100
     10 C11          1.3690     1.3620    -1.1890 ca         1 4KC      -0.099000
     11 C12          2.6770     0.8480    -1.1440 ca         1 4KC      -0.018500
     12 C15          0.9660     0.5490     1.0650 ca         1 4KC      -0.099000
     13 C14          2.2740     0.0350     1.1150 ca         1 4KC      -0.018500
     14 C13          3.1320     0.1750     0.0060 ca         1 4KC      -0.252500
     15 S            4.8050    -0.4810     0.0680 sy         1 4KC       1.125600
     16 N1           5.6700     0.7630     0.6730 n8         1 4KC      -1.004100
     17 O1           4.9250    -1.5120     1.0970 o          1 4KC      -0.543000
     18 O2           5.3500    -0.6550    -1.2760 o          1 4KC      -0.543000
     19 N           -1.9530     1.1770     0.5620 n          1 4KC      -0.394800
     20 C18         -5.5320    -0.8690    -0.6900 ca         1 4KC      -0.108000
     21 C17         -5.6050    -2.2720    -0.6770 ca         1 4KC      -0.102000
     22 C16         -4.5260    -3.0260    -0.1900 ca         1 4KC      -0.108000
     23 H1          -2.5390    -2.9700     0.6550 ha         1 4KC       0.112000
     24 H2          -1.9190    -0.4900     1.8670 h1         1 4KC       0.063200
     25 H3          -1.1580    -0.7840     0.2970 h1         1 4KC       0.063200
     26 H4          -3.1610     2.9390     0.6420 h1         1 4KC       0.064700
     27 H5          -3.6050     1.6630     1.7810 h1         1 4KC       0.064700
     28 H6          -5.2910     1.7430    -0.0000 hc         1 4KC       0.063200
     29 H7          -4.0570     1.6450    -1.2520 hc         1 4KC       0.063200
     30 H8           1.0350     1.8800    -2.0860 ha         1 4KC       0.130000
     31 H9           3.3320     0.9790    -2.0050 ha         1 4KC       0.139500
     32 H10          0.3360     0.4570     1.9460 ha         1 4KC       0.130000
     33 H11          2.6170    -0.4640     2.0200 ha         1 4KC       0.139500
     34 H12          6.4060     0.8290    -0.0260 hn         1 4KC       0.476000
     35 H13          6.1470     0.2970     1.4410 hn         1 4KC       0.476000
     36 H14         -6.3710    -0.2900    -1.0700 ha         1 4KC       0.113000
     37 H15         -6.4980    -2.7730    -1.0450 ha         1 4KC       0.115000
     38 H16         -4.5820    -4.1120    -0.1800 ha         1 4KC       0.116000
@<TRIPOS>BOND
     1     1     2 ar  
     2     1    22 ar  
     3     1    23 1   
     4     2     5 1   
     5     2     8 ar  
     6     3     4 1   
     7     3     9 2   
     8     3    19 1   
     9     4    10 ar  
    10     4    12 ar  
    11     5    19 1   
    12     5    24 1   
    13     5    25 1   
    14     6     7 1   
    15     6    19 1   
    16     6    26 1   
    17     6    27 1   
    18     7     8 1   
    19     7    28 1   
    20     7    29 1   
    21     8    20 ar  
    22    10    11 ar  
    23    10    30 1   
    24    11    14 ar  
    25    11    31 1   
    26    12    13 ar  
    27    12    32 1   
    28    13    14 ar  
    29    13    33 1   
    30    14    15 1   
    31    15    16 1   
    32    15    17 2   
    33    15    18 2   
    34    16    34 1   
    35    16    35 1   
    36    20    21 ar  
    37    20    36 1   
    38    21    22 ar  
    39    21    37 1   
    40    22    38 1   
@<TRIPOS>SUBSTRUCTURE
     1 4KC         1 TEMP              0 ****  ****    0 ROOT
