@<TRIPOS>MOLECULE
4KD
   46    48     1     0     0
SMALL
bcc


@<TRIPOS>ATOM
      1 C3          -2.6000    -1.1640     0.6820 ca         1 4KD      -0.184000
      2 C4          -2.2820     0.1980     0.6420 ca         1 4KD      -0.111300
      3 C9           0.4160     2.3490     0.1460 c          1 4KD       0.676700
      4 C10          1.5790     1.4050     0.1050 ca         1 4KD      -0.087600
      5 C5          -0.9860     0.6460     1.2760 c6         1 4KD       0.150300
      6 C6          -1.7720     2.9210     1.0150 c6         1 4KD       0.091000
      7 C7          -2.8440     2.5640    -0.0010 c6         1 4KD      -0.054100
      8 C8          -3.1530     1.0910     0.0440 ca         1 4KD      -0.062300
      9 O            0.5020     3.4120    -0.4520 o          1 4KD      -0.587100
     10 C11          2.1340     1.0820    -1.1300 ca         1 4KD      -0.115500
     11 C12          3.2630     0.2850    -1.2040 ca         1 4KD      -0.043000
     12 C15          2.1820     0.9470     1.2730 ca         1 4KD      -0.115500
     13 C14          3.3280     0.1710     1.2120 ca         1 4KD      -0.043000
     14 C13          3.8560    -0.1580    -0.0290 ca         1 4KD      -0.306500
     15 S            5.3430    -1.1250    -0.1180 sy         1 4KD       1.283200
     16 N1           6.6060    -0.0760    -0.0920 n8         1 4KD      -0.886700
     17 O1           5.4370    -1.9140     1.0980 o          1 4KD      -0.599300
     18 O2           5.3720    -1.7750    -1.4170 o          1 4KD      -0.599300
     19 N           -0.6520     2.0030     0.8910 n          1 4KD      -0.460800
     20 C18         -4.3360     0.6070    -0.5270 ca         1 4KD      -0.188000
     21 C17         -4.6540    -0.7370    -0.5000 ca         1 4KD       0.120100
     22 C16         -3.7680    -1.6430     0.1220 ca         1 4KD       0.116100
     23 H1          -1.9050    -1.8430     1.1610 ha         1 4KD       0.137000
     24 H2          -1.0650     0.5860     2.3670 h1         1 4KD       0.060700
     25 H3          -0.1900    -0.0360     0.9840 h1         1 4KD       0.060700
     26 H4          -1.4270     3.9430     0.8870 h1         1 4KD       0.065200
     27 H5          -2.1640     2.8280     2.0310 h1         1 4KD       0.065200
     28 H6          -3.7460     3.1460     0.2010 hc         1 4KD       0.061700
     29 H7          -2.5080     2.8500    -1.0020 hc         1 4KD       0.061700
     30 H8           1.6740     1.4370    -2.0420 ha         1 4KD       0.149000
     31 H9           3.6700     0.0200    -2.1700 ha         1 4KD       0.157500
     32 H10          1.7700     1.2020     2.2410 ha         1 4KD       0.149000
     33 H11          3.7900    -0.1730     2.1270 ha         1 4KD       0.157500
     34 H12          6.6810     0.4530     0.7700 hn         1 4KD       0.422800
     35 H13          6.6510     0.5310    -0.9040 hn         1 4KD       0.422800
     36 H14         -5.0090     1.3170    -0.9940 ha         1 4KD       0.138000
     37 O4          -5.7680    -1.2810    -1.0260 os         1 4KD      -0.294900
     38 O3          -4.1490    -2.9340     0.1080 os         1 4KD      -0.295900
     39 C1          -6.6830    -0.4220    -1.6730 c3         1 4KD       0.120700
     40 C2          -3.2980    -3.8840     0.7160 c3         1 4KD       0.121700
     41 H15         -6.2290     0.0930    -2.5240 h1         1 4KD       0.040700
     42 H16         -7.4950    -1.0500    -2.0340 h1         1 4KD       0.040700
     43 H17         -7.0940     0.3270    -0.9910 h1         1 4KD       0.040700
     44 H18         -2.3170    -3.9180     0.2360 h1         1 4KD       0.041367
     45 H19         -3.1610    -3.6850     1.7830 h1         1 4KD       0.041367
     46 H20         -3.7800    -4.8510     0.6000 h1         1 4KD       0.041367
@<TRIPOS>BOND
     1     1     2 ar  
     2     1    22 ar  
     3     1    23 1   
     4     2     5 1   
     5     2     8 ar  
     6     3     4 1   
     7     3     9 2   
     8     3    19 1   
     9     4    10 ar  
    10     4    12 ar  
    11     5    19 1   
    12     5    24 1   
    13     5    25 1   
    14     6     7 1   
    15     6    19 1   
    16     6    26 1   
    17     6    27 1   
    18     7     8 1   
    19     7    28 1   
    20     7    29 1   
    21     8    20 ar  
    22    10    11 ar  
    23    10    30 1   
    24    11    14 ar  
    25    11    31 1   
    26    12    13 ar  
    27    12    32 1   
    28    13    14 ar  
    29    13    33 1   
    30    14    15 1   
    31    15    16 1   
    32    15    17 2   
    33    15    18 2   
    34    16    34 1   
    35    16    35 1   
    36    20    21 ar  
    37    20    36 1   
    38    21    22 ar  
    39    21    37 1   
    40    22    38 1   
    41    37    39 1   
    42    38    40 1   
    43    39    41 1   
    44    39    42 1   
    45    39    43 1   
    46    40    44 1   
    47    40    45 1   
    48    40    46 1   
@<TRIPOS>SUBSTRUCTURE
     1 4KD         1 TEMP              0 ****  ****    0 ROOT
