@<TRIPOS>MOLECULE
4KD
   46    48     1     0     0
SMALL
No Charge or Current Charge


@<TRIPOS>ATOM
      1 C3          -2.7020    -1.2540     0.5660 ca         1 4KD      -0.166000
      2 C4          -2.3460     0.1050     0.4890 ca         1 4KD      -0.111300
      3 C9           0.5180     2.3130    -0.1430 c          1 4KD       0.609700
      4 C10          1.7730     1.4630    -0.0760 ca         1 4KD      -0.087600
      5 C5          -0.9400     0.5330     0.9410 c6         1 4KD       0.150300
      6 C6          -1.7400     2.8800     0.8420 c6         1 4KD       0.091000
      7 C7          -2.9080     2.5220    -0.0950 c6         1 4KD      -0.054100
      8 C8          -3.2800     1.0440    -0.0010 ca         1 4KD      -0.062300
      9 O            0.5030     3.3420    -0.8100 o          1 4KD      -0.587100
     10 C11          2.6280     1.4000    -1.1990 ca         1 4KD      -0.097500
     11 C12          3.8070     0.6360    -1.1660 ca         1 4KD      -0.025000
     12 C15          2.1520     0.7750     1.1000 ca         1 4KD      -0.097500
     13 C14          3.3310     0.0110     1.1390 ca         1 4KD      -0.025000
     14 C13          4.1620    -0.0680     0.0030 ca         1 4KD      -0.306500
     15 S            5.6690    -1.0420     0.0570 sy         1 4KD       1.141600
     16 N1           6.7320     0.0440     0.6580 n8         1 4KD      -0.997100
     17 O1           5.5700    -2.0890     1.0740 o          1 4KD      -0.528500
     18 O2           6.1510    -1.2920    -1.3000 o          1 4KD      -0.528500
     19 N           -0.6000     1.9530     0.6470 n          1 4KD      -0.393800
     20 C18         -4.5540     0.6190    -0.4180 ca         1 4KD      -0.170000
     21 C17         -4.9140    -0.7460    -0.3420 ca         1 4KD       0.120100
     22 C16         -3.9830    -1.6880     0.1540 ca         1 4KD       0.116100
     23 H1          -1.9700    -1.9600     0.9480 ha         1 4KD       0.119000
     24 H2          -0.8520     0.3660     2.0240 h1         1 4KD       0.060700
     25 H3          -0.2210    -0.1350     0.4480 h1         1 4KD       0.060700
     26 H4          -1.4310     3.9220     0.6780 h1         1 4KD       0.065200
     27 H5          -2.0790     2.8060     1.8860 h1         1 4KD       0.065200
     28 H6          -3.7750     3.1510     0.1480 hc         1 4KD       0.061700
     29 H7          -2.6300     2.7590    -1.1310 hc         1 4KD       0.061700
     30 H8           2.3700     1.9370    -2.1090 ha         1 4KD       0.131000
     31 H9           4.4390     0.5970    -2.0530 ha         1 4KD       0.139500
     32 H10          1.5470     0.8460     2.0010 ha         1 4KD       0.131000
     33 H11          3.5980    -0.5110     2.0570 ha         1 4KD       0.139500
     34 H12          6.2540     0.9240     0.4840 hn         1 4KD       0.478000
     35 H13          7.4570     0.0160    -0.0540 hn         1 4KD       0.478000
     36 H14         -5.2500     1.3610    -0.7960 ha         1 4KD       0.120000
     37 O4          -6.1630    -1.1940    -0.7430 os         1 4KD      -0.318100
     38 O3          -4.3590    -3.0210     0.2190 os         1 4KD      -0.319100
     39 C1          -7.1730    -0.3100    -1.2600 c3         1 4KD       0.143900
     40 C2          -3.4800    -4.0490     0.7080 c3         1 4KD       0.144900
     41 H15         -6.8220     0.1940    -2.1690 h1         1 4KD       0.040700
     42 H16         -8.0790    -0.8750    -1.5130 h1         1 4KD       0.040700
     43 H17         -7.4440     0.4500    -0.5160 h1         1 4KD       0.040700
     44 H18         -2.5720    -4.1100     0.0950 h1         1 4KD       0.041367
     45 H19         -3.1910    -3.8540     1.7490 h1         1 4KD       0.041367
     46 H20         -3.9800    -5.0250     0.6710 h1         1 4KD       0.041367
@<TRIPOS>BOND
     1     1     2 ar  
     2     1    22 ar  
     3     1    23 1   
     4     2     5 1   
     5     2     8 ar  
     6     3     4 1   
     7     3     9 2   
     8     3    19 1   
     9     4    10 ar  
    10     4    12 ar  
    11     5    19 1   
    12     5    24 1   
    13     5    25 1   
    14     6     7 1   
    15     6    19 1   
    16     6    26 1   
    17     6    27 1   
    18     7     8 1   
    19     7    28 1   
    20     7    29 1   
    21     8    20 ar  
    22    10    11 ar  
    23    10    30 1   
    24    11    14 ar  
    25    11    31 1   
    26    12    13 ar  
    27    12    32 1   
    28    13    14 ar  
    29    13    33 1   
    30    14    15 1   
    31    15    16 1   
    32    15    17 2   
    33    15    18 2   
    34    16    34 1   
    35    16    35 1   
    36    20    21 ar  
    37    20    36 1   
    38    21    22 ar  
    39    21    37 1   
    40    22    38 1   
    41    37    39 1   
    42    38    40 1   
    43    39    41 1   
    44    39    42 1   
    45    39    43 1   
    46    40    44 1   
    47    40    45 1   
    48    40    46 1   
@<TRIPOS>SUBSTRUCTURE
     1 4KD         1 TEMP              0 ****  ****    0 ROOT
