@<TRIPOS>MOLECULE
4KE
   38    39     1     0     0
SMALL
No Charge or Current Charge


@<TRIPOS>ATOM
      1 C01          2.6320     0.6320    -0.1050 c6         1 4KE      -0.056200
      2 C02          2.0260    -0.7290     0.3490 c6         1 4KE       0.180300
      3 C03          2.7840    -1.9220    -0.3120 c6         1 4KE       0.176300
      4 C04          4.2860    -1.8750     0.1210 c6         1 4KE       0.180500
      5 C05          4.8960    -0.5010    -0.0770 c2         1 4KE      -0.327200
      6 C06          4.1780     0.6560    -0.1640 ce         1 4KE      -0.111400
      7 C07          4.8350     2.0170    -0.3480 c          1 4KE       0.708200
      8 O08          4.1250     3.0080    -0.4450 o          1 4KE      -0.719500
      9 O09          6.0560     2.0790    -0.3990 o          1 4KE      -0.719500
     10 O10          4.4300    -2.1870     1.5060 oh         1 4KE      -0.682000
     11 O11          2.6470    -1.9040    -1.7530 oh         1 4KE      -0.637000
     12 O12          0.6120    -0.7890     0.0380 os         1 4KE      -0.442100
     13 C13         -0.2980    -0.0500     0.7420 c          1 4KE       0.594300
     14 C14         -1.6680    -0.2280     0.1940 ce         1 4KE      -0.250200
     15 C15         -2.7890     0.3770     0.6890 cf         1 4KE      -0.105200
     16 C16         -4.1900     0.2750     0.2290 ca         1 4KE      -0.094800
     17 O17         -0.0260     0.6580     1.7010 o          1 4KE      -0.492000
     18 C18         -5.1940     1.0020     0.9050 ca         1 4KE      -0.051500
     19 C19         -6.5350     0.9240     0.4900 ca         1 4KE      -0.183500
     20 C20         -6.8860     0.1190    -0.6040 ca         1 4KE       0.140100
     21 C21         -5.8980    -0.6070    -1.2820 ca         1 4KE      -0.183500
     22 C22         -4.5560    -0.5320    -0.8700 ca         1 4KE      -0.051500
     23 O23         -8.1830     0.0390    -1.0110 oh         1 4KE      -0.535100
     24 H1           2.2420     0.8850    -1.0990 hc         1 4KE       0.076700
     25 H2           2.2810     1.4210     0.5720 hc         1 4KE       0.076700
     26 H3           2.1470    -0.8250     1.4380 h1         1 4KE       0.077700
     27 H4           2.3510    -2.8560     0.0740 h1         1 4KE       0.030700
     28 H5           4.8510    -2.6060    -0.4760 h1         1 4KE       0.012700
     29 H6           5.9840    -0.4800    -0.1450 ha         1 4KE       0.193000
     30 H8           5.3640    -1.9870     1.7340 ho         1 4KE       0.446000
     31 H9           3.1590    -2.6680    -2.0930 ho         1 4KE       0.427000
     32 H10         -1.7360    -0.8960    -0.6600 ha         1 4KE       0.194000
     33 H11         -2.6520     1.0370     1.5500 ha         1 4KE       0.192000
     34 H12         -4.9360     1.6300     1.7550 ha         1 4KE       0.119000
     35 H13         -7.2940     1.4920     1.0240 ha         1 4KE       0.118000
     36 H14         -6.1700    -1.2300    -2.1300 ha         1 4KE       0.118000
     37 H15         -3.8100    -1.1050    -1.4140 ha         1 4KE       0.119000
     38 H16         -8.7270     0.6080    -0.4250 ho         1 4KE       0.462000
@<TRIPOS>BOND
     1     1     2 1   
     2     1     6 1   
     3     1    24 1   
     4     1    25 1   
     5     2     3 1   
     6     2    12 1   
     7     2    26 1   
     8     3     4 1   
     9     3    11 1   
    10     3    27 1   
    11     4     5 1   
    12     4    10 1   
    13     4    28 1   
    14     5     6 2   
    15     5    29 1   
    16     6     7 1   
    17     7     8 1   
    18     7     9 1   
    19    10    30 1   
    20    11    31 1   
    21    12    13 1   
    22    13    14 1   
    23    13    17 2   
    24    14    15 2   
    25    14    32 1   
    26    15    16 1   
    27    15    33 1   
    28    16    18 ar  
    29    16    22 ar  
    30    18    19 ar  
    31    18    34 1   
    32    19    20 ar  
    33    19    35 1   
    34    20    21 ar  
    35    20    23 1   
    36    21    22 ar  
    37    21    36 1   
    38    22    37 1   
    39    23    38 1   
@<TRIPOS>SUBSTRUCTURE
     1 4KE         1 TEMP              0 ****  ****    0 ROOT
