@<TRIPOS>MOLECULE
4KE
   38    39     1     0     0
SMALL
abcg2


@<TRIPOS>ATOM
      1 C01          2.6380     0.6930    -0.2820 c6         1 4KE      -0.056200
      2 C02          2.0050    -0.5830     0.2470 c6         1 4KE       0.180300
      3 C03          2.6940    -1.8180    -0.2990 c6         1 4KE       0.176300
      4 C04          4.1410    -1.8270     0.1950 c6         1 4KE       0.180500
      5 C05          4.7920    -0.4820     0.0550 c2         1 4KE      -0.327200
      6 C06          4.1340     0.6580    -0.1560 ce         1 4KE      -0.111400
      7 C07          4.8890     1.9760    -0.3010 c          1 4KE       0.708200
      8 O08          4.1890     2.9820    -0.5280 o          1 4KE      -0.719500
      9 O09          6.1300     1.9430    -0.1890 o          1 4KE      -0.719500
     10 O10          4.1210    -2.2640     1.5450 oh         1 4KE      -0.682000
     11 O11          2.6370    -1.7680    -1.7020 oh         1 4KE      -0.637000
     12 O12          0.6240    -0.6670    -0.1290 os         1 4KE      -0.442100
     13 C13         -0.2880    -0.0420     0.6120 c          1 4KE       0.594300
     14 C14         -1.6340    -0.2510     0.0640 ce         1 4KE      -0.250200
     15 C15         -2.7010     0.3150     0.6430 cf         1 4KE      -0.105200
     16 C16         -4.0880     0.2100     0.2230 ca         1 4KE      -0.094800
     17 O17         -0.0260     0.6060     1.6000 o          1 4KE      -0.492000
     18 C18         -5.0620     0.9110     0.9380 ca         1 4KE      -0.051500
     19 C19         -6.3990     0.8620     0.5840 ca         1 4KE      -0.183500
     20 C20         -6.7970     0.0960    -0.5090 ca         1 4KE       0.140100
     21 C21         -5.8380    -0.6180    -1.2350 ca         1 4KE      -0.183500
     22 C22         -4.5100    -0.5580    -0.8700 ca         1 4KE      -0.051500
     23 O23         -8.0740     0.0060    -0.9090 oh         1 4KE      -0.535100
     24 H1           2.3590     0.8470    -1.3290 hc         1 4KE       0.076700
     25 H2           2.2440     1.5530     0.2620 hc         1 4KE       0.076700
     26 H3           2.0900    -0.6090     1.3360 h1         1 4KE       0.077700
     27 H4           2.1910    -2.7160     0.0890 h1         1 4KE       0.030700
     28 H5           4.6990    -2.5510    -0.4190 h1         1 4KE       0.012700
     29 H6           5.8730    -0.4520     0.1430 ha         1 4KE       0.193000
     30 H8           5.0110    -2.1850     1.9020 ho         1 4KE       0.446000
     31 H9           3.0270    -2.5750    -2.0530 ho         1 4KE       0.427000
     32 H10         -1.7180    -0.8740    -0.8180 ha         1 4KE       0.194000
     33 H11         -2.5340     0.9300     1.5220 ha         1 4KE       0.192000
     34 H12         -4.7680     1.5090     1.7910 ha         1 4KE       0.119000
     35 H13         -7.1300     1.4210     1.1570 ha         1 4KE       0.118000
     36 H14         -6.1450    -1.2140    -2.0840 ha         1 4KE       0.118000
     37 H15         -3.7940    -1.1250    -1.4510 ha         1 4KE       0.119000
     38 H16         -8.6450     0.5440    -0.3470 ho         1 4KE       0.462000
@<TRIPOS>BOND
     1     1     2 1   
     2     1     6 1   
     3     1    24 1   
     4     1    25 1   
     5     2     3 1   
     6     2    12 1   
     7     2    26 1   
     8     3     4 1   
     9     3    11 1   
    10     3    27 1   
    11     4     5 1   
    12     4    10 1   
    13     4    28 1   
    14     5     6 2   
    15     5    29 1   
    16     6     7 1   
    17     7     8 1   
    18     7     9 1   
    19    10    30 1   
    20    11    31 1   
    21    12    13 1   
    22    13    14 1   
    23    13    17 2   
    24    14    15 2   
    25    14    32 1   
    26    15    16 1   
    27    15    33 1   
    28    16    18 ar  
    29    16    22 ar  
    30    18    19 ar  
    31    18    34 1   
    32    19    20 ar  
    33    19    35 1   
    34    20    21 ar  
    35    20    23 1   
    36    21    22 ar  
    37    21    36 1   
    38    22    37 1   
    39    23    38 1   
@<TRIPOS>SUBSTRUCTURE
     1 4KE         1 TEMP              0 ****  ****    0 ROOT
