@<TRIPOS>MOLECULE
4KF
   48    48     1     0     0
SMALL
bcc


@<TRIPOS>ATOM
      1 C4          -3.3320     1.6760     0.5340 ca         1 4KF      -0.185000
      2 C5          -2.0550     1.3550     0.0950 ca         1 4KF      -0.040300
      3 C6          -1.0170     2.4470     0.0110 c3         1 4KF       0.146300
      4 C8           1.4020     2.0640    -0.2930 c          1 4KF       0.644100
      5 C10          2.4630    -0.1530     0.1570 c3         1 4KF      -0.233700
      6 C13          3.5850    -0.9510     0.8490 c3         1 4KF      -0.034700
      7 C15          3.3650    -2.4550     0.6460 c3         1 4KF      -0.073400
      8 C20         -2.7340    -0.9280    -0.2130 ca         1 4KF       0.162600
      9 C22         -3.3090    -3.2140    -0.5310 c3         1 4KF       0.130700
     10 C11          2.4310    -0.4320    -1.3570 c          1 4KF       0.924600
     11 O12          3.4580    -0.0600    -1.9900 o          1 4KF      -0.820800
     12 C14          3.6900    -0.6130     2.3330 c3         1 4KF      -0.087100
     13 C16          4.5180    -3.3260     1.1300 c3         1 4KF      -0.084100
     14 C9           2.6100     1.3740     0.3480 c3         1 4KF       0.110100
     15 O17          3.8050     1.8530    -0.1870 oh         1 4KF      -0.632800
     16 O18          1.4540     2.5810    -1.3970 o          1 4KF      -0.581100
     17 N7           0.2830     2.0110     0.4530 ns         1 4KF      -0.587900
     18 C19         -1.7490     0.0540    -0.2840 ca         1 4KF      -0.185000
     19 C1          -4.3160     0.6910     0.5910 ca         1 4KF       0.162600
     20 O2          -5.5270     1.0890     1.0230 os         1 4KF      -0.309900
     21 C3          -6.5740     0.1420     1.0920 c3         1 4KF       0.130700
     22 C23         -4.0230    -0.6200     0.2230 ca         1 4KF      -0.313000
     23 O21         -2.3610    -2.1680    -0.5860 os         1 4KF      -0.309900
     24 H1          -3.5720     2.6880     0.8360 ha         1 4KF       0.171000
     25 H2          -0.9190     2.7860    -1.0210 h1         1 4KF       0.056700
     26 H3          -1.3470     3.3100     0.5940 h1         1 4KF       0.056700
     27 H4           1.5110    -0.4630     0.6010 hc         1 4KF       0.039700
     28 H5           4.5350    -0.6850     0.3730 hc         1 4KF       0.065700
     29 H6           2.4410    -2.7530     1.1530 hc         1 4KF       0.049200
     30 H7           3.2030    -2.6640    -0.4140 hc         1 4KF       0.049200
     31 H8          -2.7930    -4.1140    -0.8570 h1         1 4KF       0.031867
     32 H9          -3.6850    -3.3750     0.4820 h1         1 4KF       0.031867
     33 H10         -4.1570    -3.0350    -1.1980 h1         1 4KF       0.031867
     34 H12          3.9760     0.4250     2.5020 hc         1 4KF       0.017367
     35 H13          2.7400    -0.7860     2.8460 hc         1 4KF       0.017367
     36 H14          4.4440    -1.2270     2.8250 hc         1 4KF       0.017367
     37 H15          4.3530    -4.3720     0.8660 hc         1 4KF       0.017367
     38 H16          5.4610    -3.0170     0.6740 hc         1 4KF       0.017367
     39 H17          4.6470    -3.2830     2.2120 hc         1 4KF       0.017367
     40 H18          2.5950     1.6070     1.4200 h1         1 4KF       0.028700
     41 H19          3.9490     1.2980    -0.9870 ho         1 4KF       0.478000
     42 H20          0.3430     1.6120     1.3770 hn         1 4KF       0.303500
     43 H21         -0.7570    -0.2130    -0.6360 ha         1 4KF       0.171000
     44 H22         -7.4530     0.6780     1.4400 h1         1 4KF       0.031867
     45 H23         -6.7950    -0.2960     0.1150 h1         1 4KF       0.031867
     46 H24         -6.3530    -0.6630     1.7970 h1         1 4KF       0.031867
     47 H25         -4.7820    -1.3870     0.2750 ha         1 4KF       0.126000
     48 O1           1.4290    -0.9670    -1.8530 o          1 4KF      -0.820800
@<TRIPOS>BOND
     1     1     2 ar  
     2     1    19 ar  
     3     1    24 1   
     4     2     3 1   
     5     2    18 ar  
     6     3    17 1   
     7     3    25 1   
     8     3    26 1   
     9     4    14 1   
    10     4    16 2   
    11     4    17 1   
    12     5     6 1   
    13     5    10 1   
    14     5    14 1   
    15     5    27 1   
    16     6     7 1   
    17     6    12 1   
    18     6    28 1   
    19     7    13 1   
    20     7    29 1   
    21     7    30 1   
    22     8    18 ar  
    23     8    22 ar  
    24     8    23 1   
    25     9    23 1   
    26     9    31 1   
    27     9    32 1   
    28     9    33 1   
    29    10    11 1   
    30    10    48 1   
    31    12    34 1   
    32    12    35 1   
    33    12    36 1   
    34    13    37 1   
    35    13    38 1   
    36    13    39 1   
    37    14    15 1   
    38    14    40 1   
    39    15    41 1   
    40    17    42 1   
    41    18    43 1   
    42    19    20 1   
    43    19    22 ar  
    44    20    21 1   
    45    21    44 1   
    46    21    45 1   
    47    21    46 1   
    48    22    47 1   
@<TRIPOS>SUBSTRUCTURE
     1 4KF         1 TEMP              0 ****  ****    0 ROOT
