@<TRIPOS>MOLECULE
4KF
   48    48     1     0     0
SMALL
No Charge or Current Charge


@<TRIPOS>ATOM
      1 C4          -3.2130     1.4920     0.3230 ca         1 4KF      -0.167000
      2 C5          -2.3540     0.8810    -0.6070 ca         1 4KF      -0.040300
      3 C6          -1.0690     1.5710    -1.0390 c3         1 4KF       0.146300
      4 C8           1.3530     1.6080    -0.3750 c          1 4KF       0.577100
      5 C10          3.1950    -0.1500     0.1060 c3         1 4KF      -0.233700
      6 C13          4.0400    -0.9390     1.1740 c3         1 4KF      -0.034700
      7 C15          4.8580    -2.0970     0.5180 c3         1 4KF      -0.073400
      8 C20         -3.8700    -1.0290    -0.7240 ca         1 4KF       0.162600
      9 C22         -5.3170    -3.0190    -0.9330 c3         1 4KF       0.153900
     10 C11          4.0660     0.3320    -1.0760 c          1 4KF       0.714000
     11 O12          4.8980     1.2000    -0.8490 o          1 4KF      -0.715500
     12 C14          3.1610    -1.4660     2.3430 c3         1 4KF      -0.087100
     13 C16          5.8270    -2.8420     1.4640 c3         1 4KF      -0.084100
     14 C9           2.3880     1.0570     0.6730 c3         1 4KF       0.133300
     15 O17          3.3240     2.0620     1.1200 oh         1 4KF      -0.695000
     16 O18          1.6440     2.3990    -1.2650 o          1 4KF      -0.581100
     17 N7           0.0560     1.1760    -0.1950 ns         1 4KF      -0.520900
     18 C19         -2.6910    -0.3830    -1.1230 ca         1 4KF      -0.167000
     19 C1          -4.3960     0.8570     0.7310 ca         1 4KF       0.162600
     20 O2          -5.1930     1.5140     1.6460 os         1 4KF      -0.333100
     21 C3          -6.4260     0.9570     2.1330 c3         1 4KF       0.153900
     22 C23         -4.7300    -0.4090     0.2060 ca         1 4KF      -0.295000
     23 O21         -4.1390    -2.2670    -1.2720 os         1 4KF      -0.333100
     24 H1          -2.9640     2.4660     0.7370 ha         1 4KF       0.153000
     25 H2          -0.8420     1.3120    -2.0820 h1         1 4KF       0.056700
     26 H3          -1.1940     2.6610    -0.9810 h1         1 4KF       0.056700
     27 H4           2.4690    -0.8670    -0.2970 hc         1 4KF       0.039700
     28 H5           4.7680    -0.2410     1.6080 hc         1 4KF       0.065700
     29 H6           4.1690    -2.8230     0.0700 hc         1 4KF       0.049200
     30 H7           5.4650    -1.6990    -0.3030 hc         1 4KF       0.049200
     31 H8          -5.3310    -3.9690    -1.4810 h1         1 4KF       0.031867
     32 H9          -5.3410    -3.2440     0.1400 h1         1 4KF       0.031867
     33 H10         -6.2250    -2.4610    -1.1980 h1         1 4KF       0.031867
     34 H12          2.6830    -0.6470     2.8890 hc         1 4KF       0.017367
     35 H13          2.3790    -2.1390     1.9710 hc         1 4KF       0.017367
     36 H14          3.7600    -2.0120     3.0800 hc         1 4KF       0.017367
     37 H15          6.4660    -3.5220     0.8880 hc         1 4KF       0.017367
     38 H16          6.4750    -2.1340     1.9950 hc         1 4KF       0.017367
     39 H17          5.2840    -3.4440     2.2010 hc         1 4KF       0.017367
     40 H18          1.7860     0.7220     1.5260 h1         1 4KF       0.028700
     41 H19          4.0660     2.0020     0.4550 ho         1 4KF       0.517000
     42 H20         -0.1190     0.5340     0.5700 hn         1 4KF       0.303500
     43 H21         -2.0330    -0.8710    -1.8390 ha         1 4KF       0.153000
     44 H22         -6.8960     1.6430     2.8490 h1         1 4KF       0.031867
     45 H23         -7.1310     0.7890     1.3090 h1         1 4KF       0.031867
     46 H24         -6.2460     0.0030     2.6450 h1         1 4KF       0.031867
     47 H25         -5.6420    -0.9040     0.5180 ha         1 4KF       0.108000
     48 O1           3.8600    -0.1440    -2.1810 o          1 4KF      -0.715500
@<TRIPOS>BOND
     1     1     2 ar  
     2     1    19 ar  
     3     1    24 1   
     4     2     3 1   
     5     2    18 ar  
     6     3    17 1   
     7     3    25 1   
     8     3    26 1   
     9     4    14 1   
    10     4    16 2   
    11     4    17 1   
    12     5     6 1   
    13     5    10 1   
    14     5    14 1   
    15     5    27 1   
    16     6     7 1   
    17     6    12 1   
    18     6    28 1   
    19     7    13 1   
    20     7    29 1   
    21     7    30 1   
    22     8    18 ar  
    23     8    22 ar  
    24     8    23 1   
    25     9    23 1   
    26     9    31 1   
    27     9    32 1   
    28     9    33 1   
    29    10    11 1   
    30    10    48 1   
    31    12    34 1   
    32    12    35 1   
    33    12    36 1   
    34    13    37 1   
    35    13    38 1   
    36    13    39 1   
    37    14    15 1   
    38    14    40 1   
    39    15    41 1   
    40    17    42 1   
    41    18    43 1   
    42    19    20 1   
    43    19    22 ar  
    44    20    21 1   
    45    21    44 1   
    46    21    45 1   
    47    21    46 1   
    48    22    47 1   
@<TRIPOS>SUBSTRUCTURE
     1 4KF         1 TEMP              0 ****  ****    0 ROOT
