@<TRIPOS>MOLECULE
4KG
   53    57     1     0     0
SMALL
No Charge or Current Charge


@<TRIPOS>ATOM
      1 CAA          5.7870     1.8950     1.5170 ca         1 4KG      -0.094000
      2 CAB          6.6550     2.9160     1.0910 ca         1 4KG      -0.111500
      3 CAC          6.9940     3.0300    -0.2680 ca         1 4KG      -0.101000
      4 CAD          6.4630     2.1220    -1.1980 ca         1 4KG      -0.111500
      5 CAE          5.5960     1.1010    -0.7700 ca         1 4KG      -0.094000
      6 CAF          5.2500     0.9760     0.5930 ca         1 4KG      -0.085300
      7 CAG          4.3090    -0.1300     1.0750 c5         1 4KG       0.211600
      8 OAH          3.1650    -0.2260     0.2010 os         1 4KG      -0.474000
      9 CAI          5.0540    -1.5000     0.9430 c5         1 4KG      -0.108400
     10 CAJ          4.2210    -2.2520    -0.1340 c5         1 4KG      -0.106400
     11 CAK          2.8290    -1.6200     0.0900 c5         1 4KG       0.139300
     12 CAL          1.8130    -1.8500    -1.0540 c3         1 4KG       0.086000
     13 NAM          0.4610    -1.2600    -0.8120 n          1 4KG      -0.344300
     14 CAN         -0.5490    -2.0860    -0.3310 c          1 4KG       0.586600
     15 OAO         -0.3620    -3.2640    -0.0480 o          1 4KG      -0.550000
     16 CAP          0.1720     0.0660    -1.0730 cc         1 4KG       0.716800
     17 NAQ          1.1520     0.8740    -1.4490 nv         1 4KG      -1.015200
     18 NAR         -0.9670     0.7030    -0.9640 nd         1 4KG      -0.716100
     19 CAS         -2.0220    -0.0950    -0.5080 ca         1 4KG       0.235400
     20 CAT         -3.2810     0.5140    -0.3680 ca         1 4KG      -0.118000
     21 CAU         -1.8800    -1.4490    -0.1780 ca         1 4KG      -0.233600
     22 CAV         -2.9890    -2.1850     0.2870 ca         1 4KG      -0.029000
     23 CAW         -4.2400    -1.5640     0.4220 ca         1 4KG      -0.146000
     24 CAX         -4.4140    -0.1990     0.0960 cp         1 4KG       0.013000
     25 CAY         -5.7480     0.4690     0.2370 cp         1 4KG      -0.043000
     26 CAZ         -6.6370     0.1170     1.2850 ca         1 4KG      -0.094500
     27 CBA         -7.8880     0.7440     1.4190 ca         1 4KG      -0.113000
     28 CBB         -8.2790     1.7360     0.5070 ca         1 4KG      -0.105000
     29 CBC         -7.4170     2.1020    -0.5390 ca         1 4KG      -0.113000
     30 CBD         -6.1650     1.4750    -0.6720 ca         1 4KG      -0.094500
     31 H1           5.5330     1.8170     2.5720 ha         1 4KG       0.112500
     32 H2           7.0640     3.6190     1.8130 ha         1 4KG       0.115000
     33 H3           7.6650     3.8200    -0.5980 ha         1 4KG       0.115000
     34 H4           6.7230     2.2080    -2.2510 ha         1 4KG       0.115000
     35 H5           5.1910     0.4050    -1.5010 ha         1 4KG       0.112500
     36 H6           3.9640     0.0430     2.1030 h1         1 4KG       0.049700
     37 H7           6.1080    -1.4010     0.6570 hc         1 4KG       0.059700
     38 H8           5.0360    -2.0330     1.9000 hc         1 4KG       0.059700
     39 H9           4.5940    -2.0520    -1.1450 hc         1 4KG       0.058200
     40 H10          4.2220    -3.3380     0.0130 hc         1 4KG       0.058200
     41 H11          2.3880    -1.9620     1.0380 h1         1 4KG       0.071700
     42 H12          2.2270    -1.4380    -1.9830 h1         1 4KG       0.075200
     43 H13          1.7250    -2.9310    -1.2230 h1         1 4KG       0.075200
     44 H14          2.0370     0.6520    -0.9980 hn         1 4KG       0.489500
     45 H15          0.8890     1.8470    -1.4030 hn         1 4KG       0.489500
     46 H16         -3.3760     1.5680    -0.6120 ha         1 4KG       0.132000
     47 H17         -2.8880    -3.2390     0.5420 ha         1 4KG       0.132000
     48 H18         -5.0840    -2.1530     0.7690 ha         1 4KG       0.119000
     49 H19         -6.3490    -0.6400     2.0110 ha         1 4KG       0.116500
     50 H20         -8.5530     0.4610     2.2320 ha         1 4KG       0.113000
     51 H21         -9.2470     2.2210     0.6100 ha         1 4KG       0.112000
     52 H22         -7.7180     2.8680    -1.2500 ha         1 4KG       0.113000
     53 H23         -5.5190     1.7640    -1.4980 ha         1 4KG       0.116500
@<TRIPOS>BOND
     1     1     2 ar  
     2     1     6 ar  
     3     1    31 1   
     4     2     3 ar  
     5     2    32 1   
     6     3     4 ar  
     7     3    33 1   
     8     4     5 ar  
     9     4    34 1   
    10     5     6 ar  
    11     5    35 1   
    12     6     7 1   
    13     7     8 1   
    14     7     9 1   
    15     7    36 1   
    16     8    11 1   
    17     9    10 1   
    18     9    37 1   
    19     9    38 1   
    20    10    11 1   
    21    10    39 1   
    22    10    40 1   
    23    11    12 1   
    24    11    41 1   
    25    12    13 1   
    26    12    42 1   
    27    12    43 1   
    28    13    14 1   
    29    13    16 1   
    30    14    15 2   
    31    14    21 1   
    32    16    17 1   
    33    16    18 2   
    34    17    44 1   
    35    17    45 1   
    36    18    19 1   
    37    19    20 ar  
    38    19    21 ar  
    39    20    24 ar  
    40    20    46 1   
    41    21    22 ar  
    42    22    23 ar  
    43    22    47 1   
    44    23    24 ar  
    45    23    48 1   
    46    24    25 1   
    47    25    26 ar  
    48    25    30 ar  
    49    26    27 ar  
    50    26    49 1   
    51    27    28 ar  
    52    27    50 1   
    53    28    29 ar  
    54    28    51 1   
    55    29    30 ar  
    56    29    52 1   
    57    30    53 1   
@<TRIPOS>SUBSTRUCTURE
     1 4KG         1 TEMP              0 ****  ****    0 ROOT
