@<TRIPOS>MOLECULE
4KG
   53    57     1     0     0
SMALL
bcc


@<TRIPOS>ATOM
      1 CAA          5.5650     1.5950     1.7080 ca         1 4KG      -0.112000
      2 CAB          6.0840     2.8740     1.5420 ca         1 4KG      -0.129500
      3 CAC          6.0980     3.4580     0.2840 ca         1 4KG      -0.119000
      4 CAD          5.5960     2.7560    -0.8060 ca         1 4KG      -0.129500
      5 CAE          5.0860     1.4780    -0.6370 ca         1 4KG      -0.112000
      6 CAF          5.0660     0.8840     0.6230 ca         1 4KG      -0.085300
      7 CAG          4.5180    -0.5010     0.8150 c5         1 4KG       0.188400
      8 OAH          3.1660    -0.5450     0.3790 os         1 4KG      -0.427600
      9 CAI          5.1960    -1.6030     0.0060 c5         1 4KG      -0.108400
     10 CAJ          4.1120    -2.6790    -0.0640 c5         1 4KG      -0.106400
     11 CAK          2.8030    -1.9090     0.2060 c5         1 4KG       0.116100
     12 CAL          1.8140    -2.0260    -0.9390 c3         1 4KG       0.086000
     13 NAM          0.5480    -1.3310    -0.7010 n          1 4KG      -0.411300
     14 CAN         -0.4510    -2.0470    -0.0500 c          1 4KG       0.729100
     15 OAO         -0.2290    -3.1630     0.3890 o          1 4KG      -0.625500
     16 CAP          0.3330    -0.0420    -1.1420 cc         1 4KG       0.716800
     17 NAQ          1.3760     0.5950    -1.7260 nv         1 4KG      -0.904800
     18 NAR         -0.8120     0.5620    -1.0800 nd         1 4KG      -0.716100
     19 CAS         -1.8660    -0.0980    -0.5240 ca         1 4KG       0.235400
     20 CAT         -3.1160     0.5370    -0.4670 ca         1 4KG      -0.136000
     21 CAU         -1.7360    -1.3780     0.0290 ca         1 4KG      -0.233600
     22 CAV         -2.8340    -2.0000     0.6300 ca         1 4KG      -0.047000
     23 CAW         -4.0510    -1.3630     0.6810 ca         1 4KG      -0.164000
     24 CAX         -4.2050    -0.0780     0.1260 cp         1 4KG       0.013000
     25 CAY         -5.5130     0.6060     0.1830 cp         1 4KG      -0.043000
     26 CAZ         -6.3270     0.4930     1.3110 ca         1 4KG      -0.112500
     27 CBA         -7.5510     1.1420     1.3700 ca         1 4KG      -0.131000
     28 CBB         -7.9860     1.9110     0.2980 ca         1 4KG      -0.123000
     29 CBC         -7.1870     2.0280    -0.8310 ca         1 4KG      -0.131000
     30 CBD         -5.9600     1.3820    -0.8880 ca         1 4KG      -0.112500
     31 H1           5.5460     1.1470     2.6950 ha         1 4KG       0.130500
     32 H2           6.4700     3.4130     2.3980 ha         1 4KG       0.133000
     33 H3           6.4990     4.4540     0.1500 ha         1 4KG       0.133000
     34 H4           5.6070     3.2050    -1.7910 ha         1 4KG       0.133000
     35 H5           4.7140     0.9400    -1.5020 ha         1 4KG       0.130500
     36 H6           4.5680    -0.7570     1.8830 h1         1 4KG       0.049700
     37 H7           5.4490    -1.2380    -0.9920 hc         1 4KG       0.059700
     38 H8           6.1160    -1.9460     0.4770 hc         1 4KG       0.059700
     39 H9           4.0980    -3.1790    -1.0330 hc         1 4KG       0.058200
     40 H10          4.2600    -3.4480     0.6940 hc         1 4KG       0.058200
     41 H11          2.3330    -2.2760     1.1260 h1         1 4KG       0.071700
     42 H12          2.2510    -1.6560    -1.8670 h1         1 4KG       0.075200
     43 H13          1.5900    -3.0790    -1.0980 h1         1 4KG       0.075200
     44 H14          2.2930     0.4470    -1.3300 hn         1 4KG       0.434300
     45 H15          1.1820     1.5580    -1.9500 hn         1 4KG       0.434300
     46 H16         -3.2000     1.5370    -0.8750 ha         1 4KG       0.150000
     47 H17         -2.7240    -2.9920     1.0500 ha         1 4KG       0.150000
     48 H18         -4.8980    -1.8630     1.1310 ha         1 4KG       0.137000
     49 H19         -5.9940    -0.0900     2.1620 ha         1 4KG       0.134500
     50 H20         -8.1650     1.0520     2.2570 ha         1 4KG       0.131000
     51 H21         -8.9420     2.4170     0.3440 ha         1 4KG       0.130000
     52 H22         -7.5200     2.6190    -1.6740 ha         1 4KG       0.131000
     53 H23         -5.3550     1.4650    -1.7820 ha         1 4KG       0.134500
@<TRIPOS>BOND
     1     1     2 ar  
     2     1     6 ar  
     3     1    31 1   
     4     2     3 ar  
     5     2    32 1   
     6     3     4 ar  
     7     3    33 1   
     8     4     5 ar  
     9     4    34 1   
    10     5     6 ar  
    11     5    35 1   
    12     6     7 1   
    13     7     8 1   
    14     7     9 1   
    15     7    36 1   
    16     8    11 1   
    17     9    10 1   
    18     9    37 1   
    19     9    38 1   
    20    10    11 1   
    21    10    39 1   
    22    10    40 1   
    23    11    12 1   
    24    11    41 1   
    25    12    13 1   
    26    12    42 1   
    27    12    43 1   
    28    13    14 1   
    29    13    16 1   
    30    14    15 2   
    31    14    21 1   
    32    16    17 1   
    33    16    18 2   
    34    17    44 1   
    35    17    45 1   
    36    18    19 1   
    37    19    20 ar  
    38    19    21 ar  
    39    20    24 ar  
    40    20    46 1   
    41    21    22 ar  
    42    22    23 ar  
    43    22    47 1   
    44    23    24 ar  
    45    23    48 1   
    46    24    25 1   
    47    25    26 ar  
    48    25    30 ar  
    49    26    27 ar  
    50    26    49 1   
    51    27    28 ar  
    52    27    50 1   
    53    28    29 ar  
    54    28    51 1   
    55    29    30 ar  
    56    29    52 1   
    57    30    53 1   
@<TRIPOS>SUBSTRUCTURE
     1 4KG         1 TEMP              0 ****  ****    0 ROOT
