@<TRIPOS>MOLECULE
4KH
   31    33     1     0     0
SMALL
bcc


@<TRIPOS>ATOM
      1 C20         -3.9570     1.5250     0.3220 ca         1 4KH      -0.227300
      2 C19         -5.2240     2.0650     0.4760 ca         1 4KH       0.392700
      3 C17         -6.2220     0.0640     0.1070 ca         1 4KH       0.392700
      4 C7           2.0950    -0.4800    -0.2250 c          1 4KH       0.693700
      5 C4           4.4600    -0.1610     0.5160 ca         1 4KH       0.196900
      6 C2           5.6750     1.8360     0.0520 ca         1 4KH      -0.073000
      7 C1           4.5600     2.3650    -0.5840 ca         1 4KH      -0.151000
      8 C3           5.6280     0.5680     0.6110 ca         1 4KH      -0.180000
      9 C10         -0.3170    -0.3640    -0.1540 cc         1 4KH       0.535300
     10 C12         -2.5090    -0.4450    -0.1330 cd         1 4KH       0.425800
     11 C15         -3.8290     0.1660     0.0410 ca         1 4KH      -0.076500
     12 C16         -5.0060    -0.5740    -0.0650 ca         1 4KH      -0.227300
     13 C5           3.3240     0.3430    -0.1060 ca         1 4KH      -0.200600
     14 C6           3.3930     1.6240    -0.6560 ca         1 4KH      -0.075000
     15 O8           2.0990    -1.6680    -0.4830 o          1 4KH      -0.551100
     16 N11         -1.3900     0.3270     0.0370 nd         1 4KH      -0.705000
     17 C13         -2.2600    -1.7420    -0.4620 cc         1 4KH      -0.238400
     18 S14         -0.5700    -2.0280    -0.5590 ss         1 4KH      -0.059300
     19 N18         -6.3450     1.3610     0.3730 nb         1 4KH      -0.662000
     20 H1          -3.0860     2.1570     0.4180 ha         1 4KH       0.148500
     21 H2          -5.3340     3.1220     0.6920 h4         1 4KH       0.018100
     22 H3          -7.1420    -0.5040     0.0250 h4         1 4KH       0.018100
     23 H4           0.9430     1.1670     0.2540 hn         1 4KH       0.345500
     24 H5           6.5890     2.4110     0.1150 ha         1 4KH       0.142000
     25 H6           4.6010     3.3500    -1.0280 ha         1 4KH       0.145000
     26 H7           6.4870     0.1460     1.1180 ha         1 4KH       0.158000
     27 H8          -4.9940    -1.6350    -0.2730 ha         1 4KH       0.148500
     28 H9           2.5350     2.0360    -1.1710 ha         1 4KH       0.142000
     29 H10         -2.9610    -2.5390    -0.6510 h4         1 4KH       0.180000
     30 N9           0.9290     0.1980    -0.0350 ns         1 4KH      -0.534400
     31 F21          4.4200    -1.3750     1.0700 f          1 4KH      -0.118900
@<TRIPOS>BOND
     1     1     2 ar  
     2     1    11 ar  
     3     1    20 1   
     4     2    19 ar  
     5     2    21 1   
     6     3    12 ar  
     7     3    19 ar  
     8     3    22 1   
     9     4    13 1   
    10     4    15 2   
    11     4    30 1   
    12     5     8 ar  
    13     5    13 ar  
    14     5    31 1   
    15     6     7 ar  
    16     6     8 ar  
    17     6    24 1   
    18     7    14 ar  
    19     7    25 1   
    20     8    26 1   
    21     9    16 2   
    22     9    18 1   
    23     9    30 1   
    24    10    11 1   
    25    10    16 1   
    26    10    17 2   
    27    11    12 ar  
    28    12    27 1   
    29    13    14 ar  
    30    14    28 1   
    31    17    18 1   
    32    17    29 1   
    33    23    30 1   
@<TRIPOS>SUBSTRUCTURE
     1 4KH         1 TEMP              0 ****  ****    0 ROOT
