@<TRIPOS>MOLECULE
4KH
   31    33     1     0     0
SMALL
No Charge or Current Charge


@<TRIPOS>ATOM
      1 C20         -3.8990     1.5870     0.1890 ca         1 4KH      -0.144000
      2 C19         -5.1530     2.2150     0.2680 ca         1 4KH       0.327400
      3 C17         -6.2600     0.2040    -0.0090 ca         1 4KH       0.327400
      4 C7           2.1740    -0.6650    -0.0810 c          1 4KH       0.626700
      5 C4           4.6680    -0.2290     0.2320 ca         1 4KH       0.232000
      6 C2           5.6130     2.0080     0.0340 ca         1 4KH      -0.055000
      7 C1           4.3360     2.5160    -0.2390 ca         1 4KH      -0.133000
      8 C3           5.7750     0.6350     0.2690 ca         1 4KH      -0.162000
      9 C10         -0.3000    -0.6210    -0.0920 cc         1 4KH       0.535300
     10 C12         -2.5180    -0.5120    -0.0880 cd         1 4KH       0.360500
     11 C15         -3.8210     0.1880     0.0000 ca         1 4KH      -0.076500
     12 C16         -5.0490    -0.5040    -0.0990 ca         1 4KH      -0.144000
     13 C5           3.3680     0.2670    -0.0380 ca         1 4KH      -0.200600
     14 C6           3.2220     1.6600    -0.2760 ca         1 4KH      -0.057000
     15 O8           2.2870    -1.8750    -0.2030 o          1 4KH      -0.551100
     16 N11         -1.3280     0.1980     0.0130 nd         1 4KH      -0.705000
     17 C13         -2.3640    -1.8680    -0.2700 cc         1 4KH      -0.300000
     18 S14         -0.6850    -2.3140    -0.3240 ss         1 4KH       0.085600
     19 N18         -6.3220     1.5420     0.1710 nb         1 4KH      -0.662000
     20 H1          -3.0020     2.1930     0.2740 ha         1 4KH       0.130500
     21 H2          -5.2240     3.2920     0.4120 h4         1 4KH       0.018100
     22 H3          -7.2130    -0.3190    -0.0840 h4         1 4KH       0.018100
     23 H4           0.9620     0.9390     0.1190 hn         1 4KH       0.345500
     24 H5           6.4730     2.6740     0.0630 ha         1 4KH       0.124000
     25 H6           4.2070     3.5800    -0.4280 ha         1 4KH       0.127000
     26 H7           6.7620     0.2340     0.4840 ha         1 4KH       0.140000
     27 H8          -5.0840    -1.5790    -0.2440 ha         1 4KH       0.130500
     28 H9           2.2550     2.0980    -0.5120 ha         1 4KH       0.124000
     29 H10         -3.1170    -2.6350    -0.3770 h4         1 4KH       0.162000
     30 N9           0.9460    -0.0580    -0.0140 ns         1 4KH      -0.467400
     31 F21          4.8850    -1.5380     0.4890 f          1 4KH      -0.154000
@<TRIPOS>BOND
     1     1     2 ar  
     2     1    11 ar  
     3     1    20 1   
     4     2    19 ar  
     5     2    21 1   
     6     3    12 ar  
     7     3    19 ar  
     8     3    22 1   
     9     4    13 1   
    10     4    15 2   
    11     4    30 1   
    12     5     8 ar  
    13     5    13 ar  
    14     5    31 1   
    15     6     7 ar  
    16     6     8 ar  
    17     6    24 1   
    18     7    14 ar  
    19     7    25 1   
    20     8    26 1   
    21     9    16 2   
    22     9    18 1   
    23     9    30 1   
    24    10    11 1   
    25    10    16 1   
    26    10    17 2   
    27    11    12 ar  
    28    12    27 1   
    29    13    14 ar  
    30    14    28 1   
    31    17    18 1   
    32    17    29 1   
    33    23    30 1   
@<TRIPOS>SUBSTRUCTURE
     1 4KH         1 TEMP              0 ****  ****    0 ROOT
