@<TRIPOS>MOLECULE
4KJ
   30    29     1     0     0
SMALL
abcg2


@<TRIPOS>ATOM
      1 OD2          9.6950    -1.6030    27.3090 o          1 4KJ      -0.733000
      2 C            9.5090    -2.2780    26.2640 c          1 4KJ       0.687000
      3 OD1          9.5310    -3.5330    26.1770 o          1 4KJ      -0.733000
      4 CA           9.2780    -1.4940    24.9460 c3         1 4KJ       0.014500
      5 N            8.6140    -0.1950    25.1230 n8         1 4KJ      -1.012200
      6 CB          10.6360    -1.2980    24.2580 c3         1 4KJ      -0.044400
      7 CG          10.5090    -0.7670    22.8390 c3         1 4KJ      -0.134700
      8 CD          11.7890    -0.4400    22.1510 c2         1 4KJ       0.489200
      9 NE          12.9290    -0.5760    22.6910 ne         1 4KJ      -0.695000
     10 CZ          14.0830    -0.2790    21.9530 ce         1 4KJ       0.801200
     11 NH1         14.7180    -1.1220    21.2260 n2         1 4KJ      -0.861100
     12 NH2         14.5280     1.0270    22.0680 nh         1 4KJ      -0.518100
     13 C2          15.8990     1.3580    21.7230 c3         1 4KJ       0.192100
     14 OH          14.1350     1.6580    23.2700 os         1 4KJ      -0.211300
     15 C1          13.2730     2.7610    22.9840 c3         1 4KJ       0.141900
     16 H2           8.6460    -2.1100    24.3020 h1         1 4KJ       0.034700
     17 H3           7.6460    -0.3540    25.3850 hn         1 4KJ       0.384500
     18 H4           9.0380     0.2460    25.9360 hn         1 4KJ       0.384500
     19 H6          11.1730    -2.2490    24.2480 hc         1 4KJ       0.055700
     20 H7          11.2330    -0.6060    24.8590 hc         1 4KJ       0.055700
     21 H8           9.8940     0.1400    22.8260 hc         1 4KJ       0.056700
     22 H9           9.9700    -1.4810    22.2040 hc         1 4KJ       0.056700
     23 H10         11.6960    -0.0620    21.1260 h4         1 4KJ      -0.051200
     24 H11         14.1940    -1.9930    21.1810 hn         1 4KJ       0.392400
     25 H12         16.1050     0.9920    20.7210 h1         1 4KJ       0.044700
     26 H13         15.9990     2.4420    21.7350 h1         1 4KJ       0.044700
     27 H14         16.6130     0.9130    22.4230 h1         1 4KJ       0.044700
     28 H15         13.0700     3.2280    23.9470 h1         1 4KJ       0.037033
     29 H16         13.7650     3.4770    22.3220 h1         1 4KJ       0.037033
     30 H17         12.3410     2.4170    22.5320 h1         1 4KJ       0.037033
@<TRIPOS>BOND
     1     1     2 1   
     2     2     3 1   
     3     2     4 1   
     4     4     5 1   
     5     4     6 1   
     6     4    16 1   
     7     5    17 1   
     8     5    18 1   
     9     6     7 1   
    10     6    19 1   
    11     6    20 1   
    12     7     8 1   
    13     7    21 1   
    14     7    22 1   
    15     8     9 2   
    16     8    23 1   
    17     9    10 1   
    18    10    11 2   
    19    10    12 1   
    20    11    24 1   
    21    12    13 1   
    22    12    14 1   
    23    13    25 1   
    24    13    26 1   
    25    13    27 1   
    26    14    15 1   
    27    15    28 1   
    28    15    29 1   
    29    15    30 1   
@<TRIPOS>SUBSTRUCTURE
     1 4KJ         1 TEMP              0 ****  ****    0 ROOT
