@<TRIPOS>MOLECULE
4KJ
   30    29     1     0     0
SMALL
No Charge or Current Charge


@<TRIPOS>ATOM
      1 OD2          9.4350    -0.0650    27.0930 o          1 4KJ      -0.733000
      2 C            9.6340    -1.1650    26.5920 c          1 4KJ       0.687000
      3 OD1          9.8860    -2.1630    27.2530 o          1 4KJ      -0.733000
      4 CA           9.4170    -1.3320    25.0300 c3         1 4KJ       0.014500
      5 N            8.0880    -0.8570    24.4920 n8         1 4KJ      -1.012200
      6 CB          10.5930    -0.6840    24.2520 c3         1 4KJ      -0.044400
      7 CG          10.6540    -1.0590    22.7490 c3         1 4KJ      -0.134700
      8 CD          11.8370    -0.4380    22.0470 c2         1 4KJ       0.489200
      9 NE          12.9680    -1.0660    21.9640 ne         1 4KJ      -0.695000
     10 CZ          13.9810    -0.3620    21.3610 ce         1 4KJ       0.801200
     11 NH1         14.4530    -0.7550    20.2470 n2         1 4KJ      -0.861100
     12 NH2         14.5210     0.7380    22.0340 nh         1 4KJ      -0.518100
     13 C2          15.7780     1.3890    21.6080 c3         1 4KJ       0.192100
     14 OH          14.3310     0.7930    23.4750 os         1 4KJ      -0.211300
     15 C1          13.5760     1.9540    23.8690 c3         1 4KJ       0.141900
     16 H2           9.4620    -2.4130    24.8340 h1         1 4KJ       0.034700
     17 H3           7.3330    -1.3540    24.9810 hn         1 4KJ       0.384500
     18 H4           7.9520     0.1170    24.7890 hn         1 4KJ       0.384500
     19 H6          11.5340    -0.9960    24.7230 hc         1 4KJ       0.055700
     20 H7          10.5440     0.4080    24.3560 hc         1 4KJ       0.055700
     21 H8           9.7350    -0.7300    22.2510 hc         1 4KJ       0.056700
     22 H9          10.6890    -2.1510    22.6490 hc         1 4KJ       0.056700
     23 H10         11.7190     0.5580    21.6240 h4         1 4KJ      -0.051200
     24 H11         13.9520    -1.6230    20.0260 hn         1 4KJ       0.392400
     25 H12         15.6760     1.7920    20.5920 h1         1 4KJ       0.044700
     26 H13         16.0370     2.2170    22.2800 h1         1 4KJ       0.044700
     27 H14         16.6040     0.6660    21.6170 h1         1 4KJ       0.044700
     28 H15         13.4320     1.9610    24.9570 h1         1 4KJ       0.037033
     29 H16         14.1010     2.8760    23.5900 h1         1 4KJ       0.037033
     30 H17         12.5870     1.9610    23.3940 h1         1 4KJ       0.037033
@<TRIPOS>BOND
     1     1     2 1   
     2     2     3 1   
     3     2     4 1   
     4     4     5 1   
     5     4     6 1   
     6     4    16 1   
     7     5    17 1   
     8     5    18 1   
     9     6     7 1   
    10     6    19 1   
    11     6    20 1   
    12     7     8 1   
    13     7    21 1   
    14     7    22 1   
    15     8     9 2   
    16     8    23 1   
    17     9    10 1   
    18    10    11 2   
    19    10    12 1   
    20    11    24 1   
    21    12    13 1   
    22    12    14 1   
    23    13    25 1   
    24    13    26 1   
    25    13    27 1   
    26    14    15 1   
    27    15    28 1   
    28    15    29 1   
    29    15    30 1   
@<TRIPOS>SUBSTRUCTURE
     1 4KJ         1 TEMP              0 ****  ****    0 ROOT
