@<TRIPOS>MOLECULE
4KK
   38    40     1     0     0
SMALL
abcg2


@<TRIPOS>ATOM
      1 C1           7.6660    -1.3730     0.8840 c3         1 4KK       0.148900
      2 C3           5.6570    -0.1980     0.4230 ca         1 4KK       0.144100
      3 C4           6.0870     0.1740    -0.8490 ca         1 4KK      -0.189000
      4 C5           5.2480     0.9380    -1.6530 ca         1 4KK      -0.071000
      5 C6           3.9970     1.3320    -1.2110 ca         1 4KK      -0.136000
      6 C7           3.5650     0.9600     0.0610 ca         1 4KK      -0.045300
      7 C8           4.3950     0.1990     0.8690 ca         1 4KK      -0.122000
      8 C9           2.2050     1.3690     0.5430 c3         1 4KK      -0.103100
      9 C10          1.1510     0.3290     0.2450 c          1 4KK       0.604100
     10 O2           6.3840    -0.9330     1.2860 os         1 4KK      -0.341100
     11 C13         -1.2460     0.0150     0.1330 cc         1 4KK       0.538300
     12 C15         -3.3840    -0.4560    -0.0100 cd         1 4KK       0.360500
     13 C16         -2.8860    -1.6990    -0.2510 cc         1 4KK      -0.301000
     14 C18         -4.8010    -0.0830     0.0240 ca         1 4KK      -0.075500
     15 O11          1.3860    -0.8340    -0.0130 o          1 4KK      -0.554100
     16 N12         -0.1300     0.7900     0.3180 ns         1 4KK      -0.477400
     17 N14         -2.4360     0.5090     0.2050 nd         1 4KK      -0.707000
     18 S17         -1.1700    -1.6810    -0.2100 ss         1 4KK       0.081600
     19 C19         -5.1870     1.2410     0.2200 ca         1 4KK      -0.144000
     20 C20         -6.5370     1.5540     0.2380 ca         1 4KK       0.327400
     21 N21         -7.5060     0.6610     0.0770 nb         1 4KK      -0.662000
     22 C22         -7.1360    -0.6030    -0.1080 ca         1 4KK       0.327400
     23 C23         -5.8180    -1.0230    -0.1420 ca         1 4KK      -0.144000
     24 H1           7.6200    -2.0090    -0.0040 h1         1 4KK       0.041367
     25 H2           8.3410    -0.5370     0.6830 h1         1 4KK       0.041367
     26 H3           8.0660    -1.9540     1.7100 h1         1 4KK       0.041367
     27 H4           7.0610    -0.1110    -1.2250 ha         1 4KK       0.118000
     28 H5           5.5870     1.2290    -2.6380 ha         1 4KK       0.113000
     29 H6           3.3590     1.9320    -1.8470 ha         1 4KK       0.113000
     30 H7           4.0720    -0.0920     1.8620 ha         1 4KK       0.128000
     31 H8           2.2060     1.5220     1.6270 hc         1 4KK       0.073200
     32 H9           1.9100     2.3230     0.1020 hc         1 4KK       0.073200
     33 H10         -3.4210    -2.6130    -0.4530 h4         1 4KK       0.162000
     34 H11         -0.3030     1.7670     0.5110 hn         1 4KK       0.340500
     35 H12         -4.4500     2.0200     0.3540 ha         1 4KK       0.130500
     36 H13         -6.8460     2.5830     0.3900 h4         1 4KK       0.017600
     37 H14         -7.9320    -1.3270    -0.2380 h4         1 4KK       0.017600
     38 H15         -5.6040    -2.0720    -0.2940 ha         1 4KK       0.130500
@<TRIPOS>BOND
     1     1    10 1   
     2     1    24 1   
     3     1    25 1   
     4     1    26 1   
     5     2     3 ar  
     6     2     7 ar  
     7     2    10 1   
     8     3     4 ar  
     9     3    27 1   
    10     4     5 ar  
    11     4    28 1   
    12     5     6 ar  
    13     5    29 1   
    14     6     7 ar  
    15     6     8 1   
    16     7    30 1   
    17     8     9 1   
    18     8    31 1   
    19     8    32 1   
    20     9    15 2   
    21     9    16 1   
    22    11    16 1   
    23    11    17 2   
    24    11    18 1   
    25    12    13 2   
    26    12    14 1   
    27    12    17 1   
    28    13    18 1   
    29    13    33 1   
    30    14    19 ar  
    31    14    23 ar  
    32    16    34 1   
    33    19    20 ar  
    34    19    35 1   
    35    20    21 ar  
    36    20    36 1   
    37    21    22 ar  
    38    22    23 ar  
    39    22    37 1   
    40    23    38 1   
@<TRIPOS>SUBSTRUCTURE
     1 4KK         1 TEMP              0 ****  ****    0 ROOT
