@<TRIPOS>MOLECULE
4KK
   38    40     1     0     0
SMALL
No Charge or Current Charge


@<TRIPOS>ATOM
      1 C1           7.5280    -1.1000    -0.7530 c3         1 4KK       0.148900
      2 C3           5.4150    -0.1390     0.0870 ca         1 4KK       0.144100
      3 C4           5.2640     0.7020    -1.0370 ca         1 4KK      -0.189000
      4 C5           4.1510     1.5550    -1.1300 ca         1 4KK      -0.071000
      5 C6           3.1890     1.5740    -0.1070 ca         1 4KK      -0.136000
      6 C7           3.3310     0.7400     1.0180 ca         1 4KK      -0.045300
      7 C8           4.4480    -0.1140     1.1060 ca         1 4KK      -0.122000
      8 C9           2.2840     0.7550     2.1270 c3         1 4KK      -0.103100
      9 C10          1.2010    -0.2940     1.8580 c          1 4KK       0.604100
     10 O2           6.4850    -0.9980     0.2330 os         1 4KK      -0.341100
     11 C13         -1.0960    -0.4730     0.9640 cc         1 4KK       0.538300
     12 C15         -3.1590    -0.5770     0.1480 cd         1 4KK       0.360500
     13 C16         -2.9520    -1.9160     0.3960 cc         1 4KK      -0.301000
     14 C18         -4.4010    -0.0040    -0.4220 ca         1 4KK      -0.075500
     15 O11          1.3810    -1.4810     2.0840 o          1 4KK      -0.554100
     16 N12          0.0350     0.2030     1.3340 ns         1 4KK      -0.477400
     17 N14         -2.0890     0.2450     0.4770 nd         1 4KK      -0.707000
     18 S17         -1.3730    -2.2000     1.0660 ss         1 4KK       0.081600
     19 C19         -4.5390     1.3840    -0.6490 ca         1 4KK      -0.144000
     20 C20         -5.7320     1.8900    -1.1920 ca         1 4KK       0.327400
     21 N21         -6.7850     1.1070    -1.5180 nb         1 4KK      -0.662000
     22 C22         -6.6630    -0.2230    -1.3050 ca         1 4KK       0.327400
     23 C23         -5.5060    -0.8130    -0.7670 ca         1 4KK      -0.144000
     24 H1           7.1200    -1.4190    -1.7210 h1         1 4KK       0.041367
     25 H2           8.0360    -0.1360    -0.8840 h1         1 4KK       0.041367
     26 H3           8.2760    -1.8390    -0.4400 h1         1 4KK       0.041367
     27 H4           5.9930     0.7070    -1.8420 ha         1 4KK       0.118000
     28 H5           4.0330     2.2030    -1.9960 ha         1 4KK       0.113000
     29 H6           2.3320     2.2390    -0.1920 ha         1 4KK       0.113000
     30 H7           4.5680    -0.7660     1.9670 ha         1 4KK       0.128000
     31 H8           2.7630     0.5250     3.0860 hc         1 4KK       0.073200
     32 H9           1.8340     1.7530     2.1810 hc         1 4KK       0.073200
     33 H10         -3.6140    -2.7530     0.2330 h4         1 4KK       0.162000
     34 H11          0.0120     1.2010     1.1920 hn         1 4KK       0.340500
     35 H12         -3.7360     2.0760    -0.4120 ha         1 4KK       0.130500
     36 H13         -5.8500     2.9580    -1.3700 h4         1 4KK       0.017600
     37 H14         -7.5220    -0.8370    -1.5750 h4         1 4KK       0.017600
     38 H15         -5.4880    -1.8890    -0.6270 ha         1 4KK       0.130500
@<TRIPOS>BOND
     1     1    10 1   
     2     1    24 1   
     3     1    25 1   
     4     1    26 1   
     5     2     3 ar  
     6     2     7 ar  
     7     2    10 1   
     8     3     4 ar  
     9     3    27 1   
    10     4     5 ar  
    11     4    28 1   
    12     5     6 ar  
    13     5    29 1   
    14     6     7 ar  
    15     6     8 1   
    16     7    30 1   
    17     8     9 1   
    18     8    31 1   
    19     8    32 1   
    20     9    15 2   
    21     9    16 1   
    22    11    16 1   
    23    11    17 2   
    24    11    18 1   
    25    12    13 2   
    26    12    14 1   
    27    12    17 1   
    28    13    18 1   
    29    13    33 1   
    30    14    19 ar  
    31    14    23 ar  
    32    16    34 1   
    33    19    20 ar  
    34    19    35 1   
    35    20    21 ar  
    36    20    36 1   
    37    21    22 ar  
    38    22    23 ar  
    39    22    37 1   
    40    23    38 1   
@<TRIPOS>SUBSTRUCTURE
     1 4KK         1 TEMP              0 ****  ****    0 ROOT
