@<TRIPOS>MOLECULE
4KL
   21    22     1     0     0
SMALL
bcc


@<TRIPOS>ATOM
      1 OAL          0.5170    -3.1130    -0.2050 oh         1 4KL      -0.507100
      2 CAJ          0.1750    -1.8260    -0.1150 ca         1 4KL       0.130100
      3 CAI         -1.1230    -1.3800    -0.0840 ca         1 4KL      -0.304300
      4 CAH         -1.3910    -0.0000     0.0090 ca         1 4KL       0.405800
      5 CAM         -2.8450     0.4870     0.0390 c          1 4KL       0.823100
      6 OAN         -3.0180     1.7130     0.1020 o          1 4KL      -0.801800
      7 OAO         -3.7130    -0.4050    -0.0030 o          1 4KL      -0.801800
      8 NAG         -0.4340     0.8930     0.0730 nb         1 4KL      -0.692000
      9 CAD          0.8440     0.4680     0.0500 ca         1 4KL       0.339600
     10 CAE          1.2350    -0.8820    -0.0450 ca         1 4KL      -0.142300
     11 CAF          2.6070    -1.2150    -0.0640 ca         1 4KL      -0.136000
     12 CAA          3.5400    -0.2130     0.0140 ca         1 4KL      -0.124000
     13 CAB          3.1680     1.1420     0.1110 ca         1 4KL      -0.206000
     14 CAC          1.8390     1.4830     0.1290 ca         1 4KL       0.099800
     15 OAK          1.4340     2.7560     0.2180 oh         1 4KL      -0.510100
     16 H1          -0.2690    -3.6720    -0.2490 ho         1 4KL       0.422000
     17 H2          -1.9490    -2.0780    -0.1320 ha         1 4KL       0.161000
     18 H4           2.9210    -2.2470    -0.1390 ha         1 4KL       0.129000
     19 H5           4.5930    -0.4600    -0.0010 ha         1 4KL       0.110000
     20 H6           3.9280     1.9110     0.1700 ha         1 4KL       0.128000
     21 H7           0.4600     2.7340     0.2100 ho         1 4KL       0.477000
@<TRIPOS>BOND
     1     1     2 1   
     2     1    16 1   
     3     2     3 ar  
     4     2    10 ar  
     5     3     4 ar  
     6     3    17 1   
     7     4     5 1   
     8     4     8 ar  
     9     5     6 1   
    10     5     7 1   
    11     8     9 ar  
    12     9    10 ar  
    13     9    14 ar  
    14    10    11 ar  
    15    11    12 ar  
    16    11    18 1   
    17    12    13 ar  
    18    12    19 1   
    19    13    14 ar  
    20    13    20 1   
    21    14    15 1   
    22    15    21 1   
@<TRIPOS>SUBSTRUCTURE
     1 4KL         1 TEMP              0 ****  ****    0 ROOT
