@<TRIPOS>MOLECULE
4KL
   21    22     1     0     0
SMALL
No Charge or Current Charge


@<TRIPOS>ATOM
      1 OAL          0.5000    -3.1450    -0.2050 oh         1 4KL      -0.546100
      2 CAJ          0.2120    -1.8120    -0.1120 ca         1 4KL       0.130100
      3 CAI         -1.1240    -1.3970    -0.0870 ca         1 4KL      -0.221000
      4 CAH         -1.4410    -0.0230     0.0080 ca         1 4KL       0.340500
      5 CAM         -2.9350     0.4290     0.0350 c          1 4KL       0.612500
      6 OAN         -3.2050     1.6250     0.1190 o          1 4KL      -0.696500
      7 OAO         -3.8160    -0.4240    -0.0280 o          1 4KL      -0.696500
      8 NAG         -0.4420     0.9140     0.0780 nb         1 4KL      -0.692000
      9 CAD          0.8590     0.5220     0.0550 ca         1 4KL       0.209000
     10 CAE          1.2320    -0.8420    -0.0400 ca         1 4KL      -0.077000
     11 CAF          2.6000    -1.2010    -0.0600 ca         1 4KL      -0.118000
     12 CAA          3.5960    -0.2140     0.0130 ca         1 4KL      -0.106000
     13 CAB          3.2370     1.1390     0.1070 ca         1 4KL      -0.188000
     14 CAC          1.8810     1.5010     0.1280 ca         1 4KL       0.165100
     15 OAK          1.5350     2.8190     0.2200 oh         1 4KL      -0.549100
     16 H1          -0.3430    -3.6470    -0.2440 ho         1 4KL       0.461000
     17 H2          -1.9240    -2.1280    -0.1420 ha         1 4KL       0.143000
     18 H4           2.8980    -2.2440    -0.1330 ha         1 4KL       0.111000
     19 H5           4.6460    -0.4990    -0.0040 ha         1 4KL       0.092000
     20 H6           4.0060     1.9050     0.1640 ha         1 4KL       0.110000
     21 H7           0.5480     2.8160     0.2160 ho         1 4KL       0.516000
@<TRIPOS>BOND
     1     1     2 1   
     2     1    16 1   
     3     2     3 ar  
     4     2    10 ar  
     5     3     4 ar  
     6     3    17 1   
     7     4     5 1   
     8     4     8 ar  
     9     5     6 1   
    10     5     7 1   
    11     8     9 ar  
    12     9    10 ar  
    13     9    14 ar  
    14    10    11 ar  
    15    11    12 ar  
    16    11    18 1   
    17    12    13 ar  
    18    12    19 1   
    19    13    14 ar  
    20    13    20 1   
    21    14    15 1   
    22    15    21 1   
@<TRIPOS>SUBSTRUCTURE
     1 4KL         1 TEMP              0 ****  ****    0 ROOT
