@<TRIPOS>MOLECULE
4KM
   54    55     1     0     0
SMALL
No Charge or Current Charge


@<TRIPOS>ATOM
      1 C2          -2.7590     2.4720    -0.3040 ca         1 4KM      -0.034000
      2 C3          -1.4590     1.9750    -0.4770 ca         1 4KM      -0.115000
      3 C18          4.5160    -0.4960    -0.7280 ca         1 4KM      -0.068000
      4 C20          4.7690     1.6960     0.2730 ca         1 4KM      -0.068000
      5 C17          3.1180    -0.3420    -0.7200 ca         1 4KM      -0.164000
      6 C21          3.3730     1.8530     0.2800 ca         1 4KM      -0.164000
      7 C6          -3.6090     0.2010    -0.2400 ca         1 4KM      -0.012000
      8 C5          -2.3050    -0.3130    -0.4220 ca         1 4KM      -0.145600
      9 C1          -3.8460     1.5880    -0.1700 ca         1 4KM      -0.216300
     10 C4          -1.2070     0.5850    -0.5230 ca         1 4KM       0.000700
     11 C19          5.3640     0.5480    -0.2940 ca         1 4KM      -0.080000
     12 C16          2.5400     0.8450    -0.2250 ca         1 4KM       0.143100
     13 C7          -2.1270    -1.8110    -0.5230 c          1 4KM       0.623700
     14 C24          7.5210     0.5790     1.0320 c          1 4KM       0.605100
     15 C26          9.0490     0.4400     1.0170 c3         1 4KM      -0.177100
     16 C23          7.4630    -0.4080    -1.2690 c3         1 4KM       0.098300
     17 C14          0.2370     0.0780    -0.6800 c3         1 4KM       0.201900
     18 C27         -5.2730     2.1160     0.0120 c3         1 4KM       0.360300
     19 C10         -3.0990    -3.9450     0.2980 c3         1 4KM       0.211000
     20 O8          -1.3210    -2.3310    -1.2820 o          1 4KM      -0.507000
     21 O25          6.9670     0.9380     2.0650 o          1 4KM      -0.584100
     22 O15          1.1780     1.0550    -0.1890 os         1 4KM      -0.356100
     23 O9          -3.0400    -2.5000     0.2460 os         1 4KM      -0.461100
     24 F28         -6.0050     1.3320     0.8370 f          1 4KM      -0.112333
     25 F29         -5.3050     3.3630     0.5380 f          1 4KM      -0.112333
     26 F30         -5.9300     2.1690    -1.1680 f          1 4KM      -0.112333
     27 H1          -2.9120     3.5490    -0.2750 ha         1 4KM       0.135000
     28 H2          -0.6420     2.6860    -0.5740 ha         1 4KM       0.144000
     29 H3           4.9360    -1.4370    -1.0750 ha         1 4KM       0.121000
     30 H4           5.3900     2.4890     0.6830 ha         1 4KM       0.121000
     31 H5           2.5040    -1.1600    -1.0870 ha         1 4KM       0.127500
     32 H6           2.9320     2.7590     0.6890 ha         1 4KM       0.127500
     33 H7          -4.4520    -0.4850    -0.1710 ha         1 4KM       0.146000
     34 H8           9.4610     1.0430     0.2000 hc         1 4KM       0.060700
     35 H9           9.5020     0.7120     1.9780 hc         1 4KM       0.060700
     36 H10          9.3230    -0.5810     0.7290 hc         1 4KM       0.060700
     37 H11         -4.0170    -3.8110     2.2810 hc         1 4KM       0.050922
     38 H12         -5.1860    -3.8120     0.9440 hc         1 4KM       0.050922
     39 H13         -4.3800    -5.3200     1.4210 hc         1 4KM       0.050922
     40 H14         -0.9520    -4.4310     0.1090 hc         1 4KM       0.050922
     41 H15         -1.4530    -3.9610     1.7490 hc         1 4KM       0.050922
     42 H16         -1.8660    -5.5620     1.1070 hc         1 4KM       0.050922
     43 H17         -3.7480    -5.5600    -1.0280 hc         1 4KM       0.050922
     44 H18         -4.3130    -3.9560    -1.5300 hc         1 4KM       0.050922
     45 H19         -2.6250    -4.4440    -1.8010 hc         1 4KM       0.050922
     46 H20          7.7400    -1.4190    -0.9440 h1         1 4KM       0.039033
     47 H21          6.7990    -0.4820    -2.1390 h1         1 4KM       0.039033
     48 H22          8.3620     0.1370    -1.5830 h1         1 4KM       0.039033
     49 H23          0.3580    -0.8540    -0.1140 h1         1 4KM       0.069200
     50 H24          0.4220    -0.1370    -1.7400 h1         1 4KM       0.069200
     51 N22          6.7860     0.3100    -0.1610 n          1 4KM      -0.246400
     52 C11         -4.2400    -4.2400     1.2960 c3         1 4KM      -0.108767
     53 C12         -1.7600    -4.5020     0.8460 c3         1 4KM      -0.108767
     54 C13         -3.4650    -4.5040    -1.1010 c3         1 4KM      -0.108767
@<TRIPOS>BOND
     1     1     2 ar  
     2     1     9 ar  
     3     1    27 1   
     4     2    10 ar  
     5     2    28 1   
     6     3     5 ar  
     7     3    11 ar  
     8     3    29 1   
     9     4     6 ar  
    10     4    11 ar  
    11     4    30 1   
    12     5    12 ar  
    13     5    31 1   
    14     6    12 ar  
    15     6    32 1   
    16     7     8 ar  
    17     7     9 ar  
    18     7    33 1   
    19     8    10 ar  
    20     8    13 1   
    21     9    18 1   
    22    10    17 1   
    23    11    51 1   
    24    12    22 1   
    25    13    20 2   
    26    13    23 1   
    27    14    15 1   
    28    14    21 2   
    29    14    51 1   
    30    15    34 1   
    31    15    35 1   
    32    15    36 1   
    33    16    46 1   
    34    16    47 1   
    35    16    48 1   
    36    16    51 1   
    37    17    22 1   
    38    17    49 1   
    39    17    50 1   
    40    18    24 1   
    41    18    25 1   
    42    18    26 1   
    43    19    23 1   
    44    19    52 1   
    45    19    53 1   
    46    19    54 1   
    47    37    52 1   
    48    38    52 1   
    49    39    52 1   
    50    40    53 1   
    51    41    53 1   
    52    42    53 1   
    53    43    54 1   
    54    44    54 1   
    55    45    54 1   
@<TRIPOS>SUBSTRUCTURE
     1 4KM         1 TEMP              0 ****  ****    0 ROOT
