@<TRIPOS>MOLECULE
4KM
   54    55     1     0     0
SMALL
bcc


@<TRIPOS>ATOM
      1 C2          -2.5730     2.3670    -0.0770 ca         1 4KM      -0.052000
      2 C3          -1.2870     1.8520    -0.0670 ca         1 4KM      -0.133000
      3 C18          4.5330    -0.5450    -0.2520 ca         1 4KM      -0.086000
      4 C20          4.7750     1.8280    -0.0750 ca         1 4KM      -0.086000
      5 C17          3.1500    -0.4210    -0.1740 ca         1 4KM      -0.182000
      6 C21          3.4030     1.9660     0.0140 ca         1 4KM      -0.182000
      7 C6          -3.4430     0.1390    -0.0670 ca         1 4KM      -0.030000
      8 C5          -2.1550    -0.3870    -0.0600 ca         1 4KM      -0.145600
      9 C1          -3.6580     1.5080    -0.0810 ca         1 4KM      -0.216300
     10 C4          -1.0460     0.4820    -0.0620 ca         1 4KM       0.000700
     11 C19          5.3540     0.5700    -0.2100 ca         1 4KM       0.012600
     12 C16          2.5780     0.8410    -0.0390 ca         1 4KM       0.143100
     13 C7          -1.9820    -1.8720    -0.0660 c          1 4KM       0.672700
     14 C24          7.5480     0.6510     0.7480 c          1 4KM       0.672100
     15 C26          9.0250     0.4200     0.5560 c3         1 4KM      -0.177100
     16 C23          7.2840    -0.0860    -1.5950 c3         1 4KM       0.098300
     17 C14          0.3740    -0.0250    -0.0690 c3         1 4KM       0.178700
     18 C27         -5.0650     2.0150    -0.0840 c3         1 4KM       0.724200
     19 C10         -3.2620    -3.9530     0.1290 c3         1 4KM       0.187800
     20 O8          -0.9150    -2.4130    -0.2300 o          1 4KM      -0.556000
     21 O25          7.0830     1.0170     1.8170 o          1 4KM      -0.584100
     22 O15          1.2520     1.0730     0.0420 os         1 4KM      -0.332900
     23 O9          -3.1240    -2.4980     0.1250 os         1 4KM      -0.437900
     24 F28         -5.7040     1.7060     1.0550 f          1 4KM      -0.233633
     25 F29         -5.1330     3.3410    -0.2230 f          1 4KM      -0.233633
     26 F30         -5.7830     1.4760    -1.0790 f          1 4KM      -0.233633
     27 H1          -2.7020     3.4410    -0.0840 ha         1 4KM       0.153000
     28 H2          -0.4620     2.5470    -0.0660 ha         1 4KM       0.162000
     29 H3           4.9650    -1.5320    -0.3520 ha         1 4KM       0.139000
     30 H4           5.4020     2.7100    -0.0520 ha         1 4KM       0.139000
     31 H5           2.5470    -1.3180    -0.2120 ha         1 4KM       0.145500
     32 H6           2.9600     2.9490     0.1170 ha         1 4KM       0.145500
     33 H7          -4.2870    -0.5360    -0.0690 ha         1 4KM       0.164000
     34 H8           9.4360     1.0830    -0.2070 hc         1 4KM       0.060700
     35 H9           9.5460     0.6060     1.4910 hc         1 4KM       0.060700
     36 H10          9.2300    -0.6030     0.2370 hc         1 4KM       0.060700
     37 H11         -5.0910    -3.7020     1.2710 hc         1 4KM       0.050922
     38 H12         -5.3320    -3.7150    -0.4830 hc         1 4KM       0.050922
     39 H13         -4.9850    -5.2160     0.3730 hc         1 4KM       0.050922
     40 H14         -1.4120    -4.4660     1.1790 hc         1 4KM       0.050922
     41 H15         -2.7830    -4.0960     2.2380 hc         1 4KM       0.050922
     42 H16         -2.7260    -5.6200     1.3600 hc         1 4KM       0.050922
     43 H17         -3.1250    -5.5910    -1.2420 hc         1 4KM       0.050922
     44 H18         -3.3440    -4.0360    -2.0370 hc         1 4KM       0.050922
     45 H19         -1.7640    -4.4860    -1.3740 hc         1 4KM       0.050922
     46 H20          7.5780    -1.1350    -1.5240 h1         1 4KM       0.039033
     47 H21          6.5140     0.0000    -2.3560 h1         1 4KM       0.039033
     48 H22          8.1430     0.4920    -1.9310 h1         1 4KM       0.039033
     49 H23          0.5350    -0.7220     0.7580 h1         1 4KM       0.069200
     50 H24          0.5650    -0.5710    -0.9970 h1         1 4KM       0.069200
     51 N22          6.7610     0.4290    -0.3380 n          1 4KM      -0.406000
     52 C11         -4.7570    -4.1510     0.3350 c3         1 4KM      -0.108767
     53 C12         -2.4900    -4.5580     1.2940 c3         1 4KM      -0.108767
     54 C13         -2.8380    -4.5390    -1.2120 c3         1 4KM      -0.108767
@<TRIPOS>BOND
     1     1     2 ar  
     2     1     9 ar  
     3     1    27 1   
     4     2    10 ar  
     5     2    28 1   
     6     3     5 ar  
     7     3    11 ar  
     8     3    29 1   
     9     4     6 ar  
    10     4    11 ar  
    11     4    30 1   
    12     5    12 ar  
    13     5    31 1   
    14     6    12 ar  
    15     6    32 1   
    16     7     8 ar  
    17     7     9 ar  
    18     7    33 1   
    19     8    10 ar  
    20     8    13 1   
    21     9    18 1   
    22    10    17 1   
    23    11    51 1   
    24    12    22 1   
    25    13    20 2   
    26    13    23 1   
    27    14    15 1   
    28    14    21 2   
    29    14    51 1   
    30    15    34 1   
    31    15    35 1   
    32    15    36 1   
    33    16    46 1   
    34    16    47 1   
    35    16    48 1   
    36    16    51 1   
    37    17    22 1   
    38    17    49 1   
    39    17    50 1   
    40    18    24 1   
    41    18    25 1   
    42    18    26 1   
    43    19    23 1   
    44    19    52 1   
    45    19    53 1   
    46    19    54 1   
    47    37    52 1   
    48    38    52 1   
    49    39    52 1   
    50    40    53 1   
    51    41    53 1   
    52    42    53 1   
    53    43    54 1   
    54    44    54 1   
    55    45    54 1   
@<TRIPOS>SUBSTRUCTURE
     1 4KM         1 TEMP              0 ****  ****    0 ROOT
