@<TRIPOS>MOLECULE
4KN
   31    32     1     0     0
SMALL
No Charge or Current Charge


@<TRIPOS>ATOM
      1 CAO          4.1400     1.2800     0.0010 ca         1 4KN      -0.142500
      2 CAQ          5.4590     0.7910    -0.0310 ca         1 4KN      -0.115500
      3 CAS          5.6900    -0.5940    -0.0440 ca         1 4KN       0.137000
      4 FAT          6.9560    -1.0640    -0.0740 f          1 4KN      -0.178000
      5 CAR          4.6110    -1.4920    -0.0240 ca         1 4KN      -0.115500
      6 CAP          3.2900    -1.0050     0.0070 ca         1 4KN      -0.142500
      7 CAN          3.0520     0.3890     0.0200 ca         1 4KN       0.124100
      8 OAM          1.7810     0.9260     0.0510 os         1 4KN      -0.315100
      9 CAL          0.5930     0.0990     0.0730 c3         1 4KN       0.066600
     10 CAJ         -0.7100     0.9370     0.1060 c          1 4KN       0.603700
     11 OAK         -0.6700     2.1650     0.1120 o          1 4KN      -0.532100
     12 CAC         -2.0540     0.2240     0.1320 ca         1 4KN      -0.305600
     13 CAB         -2.1080    -1.1930     0.1260 ca         1 4KN      -0.024000
     14 CAA         -3.3380    -1.8680     0.1490 ca         1 4KN      -0.214000
     15 CAF         -4.5380    -1.1500     0.1800 ca         1 4KN       0.108100
     16 OAI         -5.7330    -1.8170     0.2030 oh         1 4KN      -0.549100
     17 CAE         -4.5170     0.2560     0.1880 ca         1 4KN       0.052100
     18 OAH         -5.7160     0.9280     0.2180 oh         1 4KN      -0.508100
     19 CAD         -3.2780     0.9450     0.1640 ca         1 4KN       0.228100
     20 OAG         -3.2760     2.3120     0.1710 oh         1 4KN      -0.510100
     21 H1           3.9580     2.3520     0.0100 ha         1 4KN       0.126500
     22 H2           6.3000     1.4810    -0.0460 ha         1 4KN       0.132500
     23 H3           4.7990    -2.5630    -0.0340 ha         1 4KN       0.132500
     24 H4           2.4710    -1.7190     0.0220 ha         1 4KN       0.126500
     25 H5           0.5520    -0.5360    -0.8200 h1         1 4KN       0.055700
     26 H6           0.5920    -0.5460     0.9600 h1         1 4KN       0.055700
     27 H7          -1.2020    -1.7950     0.1020 ha         1 4KN       0.113000
     28 H8          -3.3470    -2.9560     0.1440 ha         1 4KN       0.122000
     29 H9          -5.5520    -2.7820     0.1940 ho         1 4KN       0.480000
     30 H10         -6.4190     0.2400     0.2300 ho         1 4KN       0.477000
     31 H11         -2.3270     2.5900     0.1520 ho         1 4KN       0.512000
@<TRIPOS>BOND
     1     1     2 ar  
     2     1     7 ar  
     3     1    21 1   
     4     2     3 ar  
     5     2    22 1   
     6     3     4 1   
     7     3     5 ar  
     8     5     6 ar  
     9     5    23 1   
    10     6     7 ar  
    11     6    24 1   
    12     7     8 1   
    13     8     9 1   
    14     9    10 1   
    15     9    25 1   
    16     9    26 1   
    17    10    11 2   
    18    10    12 1   
    19    12    13 ar  
    20    12    19 ar  
    21    13    14 ar  
    22    13    27 1   
    23    14    15 ar  
    24    14    28 1   
    25    15    16 1   
    26    15    17 ar  
    27    16    29 1   
    28    17    18 1   
    29    17    19 ar  
    30    18    30 1   
    31    19    20 1   
    32    20    31 1   
@<TRIPOS>SUBSTRUCTURE
     1 4KN         1 TEMP              0 ****  ****    0 ROOT
