@<TRIPOS>MOLECULE
4KN
   31    32     1     0     0
SMALL
bcc


@<TRIPOS>ATOM
      1 CAO          3.9750     1.2720    -0.0150 ca         1 4KN      -0.160500
      2 CAQ          5.2880     0.8430    -0.0300 ca         1 4KN      -0.133500
      3 CAS          5.5540    -0.5150    -0.0210 ca         1 4KN       0.101900
      4 FAT          6.8290    -0.9330    -0.0290 f          1 4KN      -0.142900
      5 CAR          4.5380    -1.4430    -0.0030 ca         1 4KN      -0.133500
      6 CAP          3.2160    -1.0090     0.0100 ca         1 4KN      -0.160500
      7 CAN          2.9280     0.3510     0.0070 ca         1 4KN       0.124100
      8 OAM          1.6840     0.8760     0.0260 os         1 4KN      -0.291900
      9 CAL          0.5940     0.0130     0.0590 c3         1 4KN       0.043400
     10 CAJ         -0.6740     0.8480     0.1000 c          1 4KN       0.603700
     11 OAK         -0.5950     2.0640     0.1120 o          1 4KN      -0.532100
     12 CAC         -1.9550     0.1460     0.1270 ca         1 4KN      -0.305600
     13 CAB         -2.0390    -1.2520     0.1090 ca         1 4KN      -0.042000
     14 CAA         -3.2530    -1.8910     0.1330 ca         1 4KN      -0.232000
     15 CAF         -4.4260    -1.1340     0.1750 ca         1 4KN       0.108100
     16 OAI         -5.6610    -1.6810     0.1990 oh         1 4KN      -0.510100
     17 CAE         -4.3850     0.2520     0.1960 ca         1 4KN       0.052100
     18 OAH         -5.4930     1.0140     0.2390 oh         1 4KN      -0.469100
     19 CAD         -3.1460     0.9040     0.1710 ca         1 4KN       0.228100
     20 OAG         -3.1700     2.2270     0.1910 oh         1 4KN      -0.471100
     21 H1           3.7530     2.3310    -0.0180 ha         1 4KN       0.144500
     22 H2           6.0970     1.5600    -0.0440 ha         1 4KN       0.150500
     23 H3           4.7640    -2.5010    -0.0000 ha         1 4KN       0.150500
     24 H4           2.4350    -1.7560     0.0240 ha         1 4KN       0.144500
     25 H5           0.5620    -0.6390    -0.8260 h1         1 4KN       0.055700
     26 H6           0.6160    -0.6390     0.9430 h1         1 4KN       0.055700
     27 H7          -1.1450    -1.8590     0.0760 ha         1 4KN       0.131000
     28 H8          -3.3020    -2.9730     0.1180 ha         1 4KN       0.140000
     29 H9          -5.6130    -2.6400     0.1890 ho         1 4KN       0.441000
     30 H10         -6.2750     0.4550     0.2560 ho         1 4KN       0.438000
     31 H11         -2.2420     2.5440     0.1680 ho         1 4KN       0.473000
@<TRIPOS>BOND
     1     1     2 ar  
     2     1     7 ar  
     3     1    21 1   
     4     2     3 ar  
     5     2    22 1   
     6     3     4 1   
     7     3     5 ar  
     8     5     6 ar  
     9     5    23 1   
    10     6     7 ar  
    11     6    24 1   
    12     7     8 1   
    13     8     9 1   
    14     9    10 1   
    15     9    25 1   
    16     9    26 1   
    17    10    11 2   
    18    10    12 1   
    19    12    13 ar  
    20    12    19 ar  
    21    13    14 ar  
    22    13    27 1   
    23    14    15 ar  
    24    14    28 1   
    25    15    16 1   
    26    15    17 ar  
    27    16    29 1   
    28    17    18 1   
    29    17    19 ar  
    30    18    30 1   
    31    19    20 1   
    32    20    31 1   
@<TRIPOS>SUBSTRUCTURE
     1 4KN         1 TEMP              0 ****  ****    0 ROOT
