@<TRIPOS>MOLECULE
4KQ
   60    62     1     0     0
SMALL
bcc


@<TRIPOS>ATOM
      1 C20         -6.1490     1.1970    -1.1360 ca         1 4KQ      -0.118500
      2 C24         -6.1170    -0.1530     0.8340 ca         1 4KQ      -0.118500
      3 C15         -3.1420    -0.3650     0.3330 ca         1 4KQ      -0.095500
      4 C17         -3.3020     1.8890    -0.4270 ca         1 4KQ      -0.095500
      5 C21         -7.5280     1.0870    -1.1880 ca         1 4KQ      -0.132000
      6 C23         -7.5000    -0.2640     0.7730 ca         1 4KQ      -0.132000
      7 C29          2.7470     1.8530     0.1890 ca         1 4KQ      -0.170000
      8 C30          4.0490     2.3120     0.0690 ca         1 4KQ      -0.018000
      9 C14         -1.7570    -0.2670     0.3740 ca         1 4KQ      -0.188500
     10 C18         -1.9260     2.0060    -0.3920 ca         1 4KQ      -0.188500
     11 C19         -5.4140     0.5810    -0.1200 cp         1 4KQ      -0.091000
     12 C16         -3.9440     0.7000    -0.0680 cp         1 4KQ      -0.020000
     13 C2           3.5310    -0.4230     0.0440 ca         1 4KQ      -0.250600
     14 C22         -8.2330     0.3530    -0.2360 ca         1 4KQ       0.021700
     15 C10          2.4710     0.4950     0.1810 ca         1 4KQ       0.045700
     16 C31          5.1000     1.4310    -0.0940 ca         1 4KQ      -0.268300
     17 C13         -1.1390     0.9250     0.0080 ca         1 4KQ       0.113100
     18 C1           4.8450     0.0540    -0.1290 ca         1 4KQ       0.248100
     19 C26        -10.4790     1.5120     0.2010 c          1 4KQ       0.935600
     20 C6           2.8520    -4.6010    -1.1700 c3         1 4KQ      -0.110433
     21 C7           4.4010    -4.6460     0.8290 c3         1 4KQ      -0.110433
     22 C8           5.3190    -4.3940    -1.4830 c3         1 4KQ      -0.110433
     23 C25         -9.7230     0.2500    -0.2920 c3         1 4KQ      -0.195100
     24 C11          1.0380     0.0370     0.3010 c3         1 4KQ       0.176700
     25 C32          6.5020     1.9270    -0.2560 c3         1 4KQ       0.738200
     26 C5           4.1480    -4.0840    -0.5610 c3         1 4KQ       0.191800
     27 O9           2.3290    -2.3450     0.7560 o          1 4KQ      -0.528000
     28 O27         -9.8300     2.5640     0.3260 o          1 4KQ      -0.829300
     29 O36          5.9030    -0.7360    -0.3020 oh         1 4KQ      -0.493100
     30 O28        -11.6990     1.3520     0.4060 o          1 4KQ      -0.829300
     31 O12          0.1950     1.1280     0.0040 os         1 4KQ      -0.337900
     32 O4           4.1510    -2.6110    -0.5210 os         1 4KQ      -0.481900
     33 F33          7.0280     1.5910    -1.4420 f          1 4KQ      -0.235967
     34 F34          6.5690     3.2610    -0.1740 f          1 4KQ      -0.235967
     35 F35          7.3280     1.4470     0.6840 f          1 4KQ      -0.235967
     36 H1          -5.6330     1.7540    -1.9100 ha         1 4KQ       0.109500
     37 H2          -5.5850    -0.6310     1.6480 ha         1 4KQ       0.109500
     38 H3          -3.5960    -1.3100     0.6040 ha         1 4KQ       0.137000
     39 H4          -3.8870     2.7490    -0.7280 ha         1 4KQ       0.137000
     40 H5          -8.0650     1.5650    -1.9990 ha         1 4KQ       0.128500
     41 H6          -8.0170    -0.8360     1.5350 ha         1 4KQ       0.128500
     42 H7           1.9540     2.5770     0.2870 ha         1 4KQ       0.169000
     43 H8           4.2230     3.3780     0.0940 ha         1 4KQ       0.152000
     44 H9          -1.1870    -1.1330     0.6820 ha         1 4KQ       0.131500
     45 H10         -1.4520     2.9380    -0.6710 ha         1 4KQ       0.131500
     46 H11          2.9780    -5.6580    -1.4050 hc         1 4KQ       0.052367
     47 H12          2.0050    -4.5120    -0.4950 hc         1 4KQ       0.052367
     48 H13          2.6190    -4.0820    -2.1010 hc         1 4KQ       0.052367
     49 H14          4.5740    -5.7190     0.7450 hc         1 4KQ       0.052367
     50 H15          5.2910    -4.2040     1.2780 hc         1 4KQ       0.052367
     51 H16          3.5570    -4.4990     1.5000 hc         1 4KQ       0.052367
     52 H17          5.1570    -3.9930    -2.4840 hc         1 4KQ       0.052367
     53 H18          6.2560    -3.9920    -1.0930 hc         1 4KQ       0.052367
     54 H19          5.4360    -5.4730    -1.5700 hc         1 4KQ       0.052367
     55 H20        -10.0430     0.0690    -1.3250 hc         1 4KQ       0.033200
     56 H21        -10.0670    -0.6150     0.2800 hc         1 4KQ       0.033200
     57 H22          0.8360    -0.7840    -0.3920 h1         1 4KQ       0.064700
     58 H23          0.8470    -0.3310     1.3140 h1         1 4KQ       0.064700
     59 H24          5.6050    -1.6500    -0.4500 ho         1 4KQ       0.466000
     60 C3           3.2550    -1.8830     0.1420 c          1 4KQ       0.677700
@<TRIPOS>BOND
     1     1     5 ar  
     2     1    11 ar  
     3     1    36 1   
     4     2     6 ar  
     5     2    11 ar  
     6     2    37 1   
     7     3     9 ar  
     8     3    12 ar  
     9     3    38 1   
    10     4    10 ar  
    11     4    12 ar  
    12     4    39 1   
    13     5    14 ar  
    14     5    40 1   
    15     6    14 ar  
    16     6    41 1   
    17     7     8 ar  
    18     7    15 ar  
    19     7    42 1   
    20     8    16 ar  
    21     8    43 1   
    22     9    17 ar  
    23     9    44 1   
    24    10    17 ar  
    25    10    45 1   
    26    11    12 1   
    27    13    15 ar  
    28    13    18 ar  
    29    13    60 1   
    30    14    23 1   
    31    15    24 1   
    32    16    18 ar  
    33    16    25 1   
    34    17    31 1   
    35    18    29 1   
    36    19    23 1   
    37    19    28 1   
    38    19    30 1   
    39    20    26 1   
    40    20    46 1   
    41    20    47 1   
    42    20    48 1   
    43    21    26 1   
    44    21    49 1   
    45    21    50 1   
    46    21    51 1   
    47    22    26 1   
    48    22    52 1   
    49    22    53 1   
    50    22    54 1   
    51    23    55 1   
    52    23    56 1   
    53    24    31 1   
    54    24    57 1   
    55    24    58 1   
    56    25    33 1   
    57    25    34 1   
    58    25    35 1   
    59    26    32 1   
    60    27    60 2   
    61    29    59 1   
    62    32    60 1   
@<TRIPOS>SUBSTRUCTURE
     1 4KQ         1 TEMP              0 ****  ****    0 ROOT
