@<TRIPOS>MOLECULE
4KQ
   60    62     1     0     0
SMALL
No Charge or Current Charge


@<TRIPOS>ATOM
      1 C20         -6.2470     1.1380    -1.2930 ca         1 4KQ      -0.100500
      2 C24         -6.2080    -0.1040     0.7910 ca         1 4KQ      -0.100500
      3 C15         -3.2000    -0.3530     0.3380 ca         1 4KQ      -0.077500
      4 C17         -3.3440     1.8470    -0.6770 ca         1 4KQ      -0.077500
      5 C21         -7.6480     1.0280    -1.3320 ca         1 4KQ      -0.114000
      6 C23         -7.6090    -0.2130     0.7520 ca         1 4KQ      -0.114000
      7 C29          2.8600     1.8960     0.3140 ca         1 4KQ      -0.152000
      8 C30          4.1750     2.3580     0.1840 ca         1 4KQ       0.000000
      9 C14         -1.7980    -0.2470     0.3780 ca         1 4KQ      -0.170500
     10 C18         -1.9430     1.9550    -0.6370 ca         1 4KQ      -0.170500
     11 C19         -5.4960     0.5740    -0.2310 cp         1 4KQ      -0.091000
     12 C16         -4.0030     0.6900    -0.1890 cp         1 4KQ      -0.020000
     13 C2           3.6310    -0.4140     0.1900 ca         1 4KQ      -0.250600
     14 C22         -8.3390     0.3520    -0.3100 ca         1 4KQ       0.021700
     15 C10          2.5630     0.5190     0.3060 ca         1 4KQ       0.045700
     16 C31          5.2390     1.4470     0.0360 ca         1 4KQ      -0.268300
     17 C13         -1.1640     0.9140    -0.1120 ca         1 4KQ       0.113100
     18 C1           4.9560     0.0650     0.0380 ca         1 4KQ       0.248100
     19 C26        -10.4900     1.4260     0.3690 c          1 4KQ       0.725000
     20 C6           2.7300    -4.5020    -1.1450 c3         1 4KQ      -0.110433
     21 C7           4.4920    -4.7100     0.7390 c3         1 4KQ      -0.110433
     22 C8           5.2060    -4.4400    -1.6750 c3         1 4KQ      -0.110433
     23 C25         -9.8590     0.2290    -0.3550 c3         1 4KQ      -0.195100
     24 C11          1.0950     0.0660     0.4180 c3         1 4KQ       0.199900
     25 C32          6.6810     1.9600    -0.1190 c3         1 4KQ       0.374300
     26 C5           4.1290    -4.0810    -0.6300 c3         1 4KQ       0.215000
     27 O9           2.5630    -2.3730     1.0650 o          1 4KQ      -0.479000
     28 O27        -10.6920     2.4460    -0.2740 o          1 4KQ      -0.724000
     29 O36          5.9830    -0.8190    -0.1020 oh         1 4KQ      -0.532100
     30 O28        -10.6570     1.3450     1.5770 o          1 4KQ      -0.724000
     31 O12          0.2050     1.0770    -0.1000 os         1 4KQ      -0.361100
     32 O4           4.1980    -2.6370    -0.5370 os         1 4KQ      -0.505100
     33 F33          7.2350     1.5600    -1.2870 f          1 4KQ      -0.114667
     34 F34          6.7660     3.3100    -0.1020 f          1 4KQ      -0.114667
     35 F35          7.4830     1.5170     0.8770 f          1 4KQ      -0.114667
     36 H1          -5.7410     1.6550    -2.1030 ha         1 4KQ       0.091500
     37 H2          -5.6730    -0.5380     1.6310 ha         1 4KQ       0.091500
     38 H3          -3.6690    -1.2610     0.7080 ha         1 4KQ       0.119000
     39 H4          -3.9240     2.6750    -1.0760 ha         1 4KQ       0.119000
     40 H5          -8.1970     1.4690    -2.1600 ha         1 4KQ       0.110500
     41 H6          -8.1280    -0.7340     1.5520 ha         1 4KQ       0.110500
     42 H7           2.0640     2.6290     0.4220 ha         1 4KQ       0.151000
     43 H8           4.3500     3.4320     0.1940 ha         1 4KQ       0.134000
     44 H9          -1.2270    -1.0750     0.7890 ha         1 4KQ       0.113500
     45 H10         -1.4590     2.8530    -1.0130 ha         1 4KQ       0.113500
     46 H11          2.7340    -5.5590    -1.4390 hc         1 4KQ       0.052367
     47 H12          1.9570    -4.3830    -0.3790 hc         1 4KQ       0.052367
     48 H13          2.4440    -3.9090    -2.0220 hc         1 4KQ       0.052367
     49 H14          4.6860    -5.7830     0.6260 hc         1 4KQ       0.052367
     50 H15          5.3940    -4.2460     1.1550 hc         1 4KQ       0.052367
     51 H16          3.6810    -4.6060     1.4680 hc         1 4KQ       0.052367
     52 H17          4.9930    -3.9560    -2.6360 hc         1 4KQ       0.052367
     53 H18          6.2000    -4.1170    -1.3420 hc         1 4KQ       0.052367
     54 H19          5.2420    -5.5240    -1.8420 hc         1 4KQ       0.052367
     55 H20        -10.1520     0.2300    -1.4110 hc         1 4KQ       0.033200
     56 H21        -10.1230    -0.7040     0.1580 hc         1 4KQ       0.033200
     57 H22          0.9530    -0.8600    -0.1520 h1         1 4KQ       0.064700
     58 H23          0.8700    -0.1410     1.4730 h1         1 4KQ       0.064700
     59 H24          5.5640    -1.6850    -0.3290 ho         1 4KQ       0.505000
     60 C3           3.3570    -1.8970     0.2700 c          1 4KQ       0.628700
@<TRIPOS>BOND
     1     1     5 ar  
     2     1    11 ar  
     3     1    36 1   
     4     2     6 ar  
     5     2    11 ar  
     6     2    37 1   
     7     3     9 ar  
     8     3    12 ar  
     9     3    38 1   
    10     4    10 ar  
    11     4    12 ar  
    12     4    39 1   
    13     5    14 ar  
    14     5    40 1   
    15     6    14 ar  
    16     6    41 1   
    17     7     8 ar  
    18     7    15 ar  
    19     7    42 1   
    20     8    16 ar  
    21     8    43 1   
    22     9    17 ar  
    23     9    44 1   
    24    10    17 ar  
    25    10    45 1   
    26    11    12 1   
    27    13    15 ar  
    28    13    18 ar  
    29    13    60 1   
    30    14    23 1   
    31    15    24 1   
    32    16    18 ar  
    33    16    25 1   
    34    17    31 1   
    35    18    29 1   
    36    19    23 1   
    37    19    28 1   
    38    19    30 1   
    39    20    26 1   
    40    20    46 1   
    41    20    47 1   
    42    20    48 1   
    43    21    26 1   
    44    21    49 1   
    45    21    50 1   
    46    21    51 1   
    47    22    26 1   
    48    22    52 1   
    49    22    53 1   
    50    22    54 1   
    51    23    55 1   
    52    23    56 1   
    53    24    31 1   
    54    24    57 1   
    55    24    58 1   
    56    25    33 1   
    57    25    34 1   
    58    25    35 1   
    59    26    32 1   
    60    27    60 2   
    61    29    59 1   
    62    32    60 1   
@<TRIPOS>SUBSTRUCTURE
     1 4KQ         1 TEMP              0 ****  ****    0 ROOT
