@<TRIPOS>MOLECULE
4KR
   29    30     1     0     0
SMALL
No Charge or Current Charge


@<TRIPOS>ATOM
      1 C            4.7990    -0.7890     1.4660 c3         1 4KR      -0.158100
      2 C1           4.2170    -0.1510     0.2120 c          1 4KR       0.591100
      3 S1          -1.4480    -1.9150    -1.6130 ss         1 4KR      -0.489000
      4 C2           0.3080    -1.3360    -1.6150 c6         1 4KR       0.135800
      5 O2           4.8900     0.4250    -0.6320 o          1 4KR      -0.507000
      6 C3           0.6970    -0.0820    -0.8180 c2         1 4KR      -0.251400
      7 O3           2.8620    -0.3280     0.1380 os         1 4KR      -0.455100
      8 C4          -0.1580     0.5980     0.0170 ce         1 4KR       0.029400
      9 N5          -1.5170     0.1120    -0.0740 nj         1 4KR      -0.285000
     10 C6          -1.7810    -1.3160     0.1060 cy         1 4KR       0.217700
     11 C7          -3.2710    -0.9460     0.5000 cy         1 4KR       0.075500
     12 C8          -2.8130     0.5480     0.2130 c          1 4KR       0.547000
     13 O9          -3.3470     1.6490     0.2580 o          1 4KR      -0.473000
     14 C10          0.1590     1.8280     0.8820 c          1 4KR       0.723200
     15 C13          2.1760     0.2290    -0.9950 c3         1 4KR       0.231800
     16 N14         -4.3910    -1.6010    -0.2560 n8         1 4KR      -0.994200
     17 H            4.2880    -0.3760     2.3430 hc         1 4KR       0.057033
     18 HA           4.4980    -1.8430     1.5000 hc         1 4KR       0.057033
     19 HB           5.8860    -0.6740     1.5350 hc         1 4KR       0.057033
     20 H6          -1.1590    -1.8310     0.8470 h2         1 4KR       0.090700
     21 H7          -3.4370    -1.0580     1.5780 h1         1 4KR       0.081700
     22 H13          2.5530    -0.2180    -1.9260 h1         1 4KR       0.073200
     23 H13A         2.3430     1.3100    -1.0780 h1         1 4KR       0.073200
     24 HN14        -5.2240    -0.9970    -0.2590 hn         1 4KR       0.413500
     25 HN1A        -4.1350    -1.6660    -1.2510 hn         1 4KR       0.413500
     26 H2           0.9040    -2.1770    -1.2310 h1         1 4KR       0.058700
     27 O4           1.2680     2.3440     0.8380 o          1 4KR      -0.687500
     28 O5          -0.7140     2.2540     1.6280 o          1 4KR      -0.687500
     29 H2A          0.5960    -1.2070    -2.6690 h1         1 4KR       0.058700
@<TRIPOS>BOND
     1     1     2 1   
     2     1    17 1   
     3     1    18 1   
     4     1    19 1   
     5     2     5 2   
     6     2     7 1   
     7     3     4 1   
     8     3    10 1   
     9     4     6 1   
    10     4    26 1   
    11     4    29 1   
    12     6     8 2   
    13     6    15 1   
    14     7    15 1   
    15     8     9 1   
    16     8    14 1   
    17     9    10 1   
    18     9    12 1   
    19    10    11 1   
    20    10    20 1   
    21    11    12 1   
    22    11    16 1   
    23    11    21 1   
    24    12    13 2   
    25    14    27 1   
    26    14    28 1   
    27    15    22 1   
    28    15    23 1   
    29    16    24 1   
    30    16    25 1   
@<TRIPOS>SUBSTRUCTURE
     1 4KR         1 TEMP              0 ****  ****    0 ROOT
