@<TRIPOS>MOLECULE
4KR
   29    30     1     0     0
SMALL
abcg2


@<TRIPOS>ATOM
      1 C            5.0750    -1.2380     0.8220 c3         1 4KR      -0.158100
      2 C1           4.2600    -0.2620     0.0220 c          1 4KR       0.591100
      3 S1          -1.2010    -2.0680    -1.0490 ss         1 4KR      -0.489000
      4 C2           0.4970    -1.5590    -0.6430 c6         1 4KR       0.135800
      5 O2           4.7340     0.5970    -0.6820 o          1 4KR      -0.507000
      6 C3           0.6790    -0.0920    -0.3340 c2         1 4KR      -0.251400
      7 O3           2.9570    -0.4510     0.1670 os         1 4KR      -0.455100
      8 C4          -0.2970     0.7020     0.1380 ce         1 4KR       0.029400
      9 N5          -1.5530     0.1540     0.3890 nj         1 4KR      -0.285000
     10 C6          -1.9030    -1.2490     0.3990 cy         1 4KR       0.217700
     11 C7          -3.3890    -0.8340     0.2660 cy         1 4KR       0.075500
     12 C8          -2.8220     0.5870     0.0940 c          1 4KR       0.547000
     13 O9          -3.2560     1.6520    -0.2550 o          1 4KR      -0.473000
     14 C10         -0.1810     2.1880     0.4900 c          1 4KR       0.723200
     15 C13          2.0690     0.4000    -0.5860 c3         1 4KR       0.231800
     16 N14         -4.1640    -1.4340    -0.7740 n8         1 4KR      -0.994200
     17 H            4.4670    -1.8870     1.4450 hc         1 4KR       0.057033
     18 HA           5.6590    -1.8550     0.1390 hc         1 4KR       0.057033
     19 HB           5.7820    -0.6950     1.4480 hc         1 4KR       0.057033
     20 H6          -1.6100    -1.7710     1.3100 h2         1 4KR       0.090700
     21 H7          -3.9070    -0.9510     1.2200 h1         1 4KR       0.081700
     22 H13          2.3080     0.3130    -1.6510 h1         1 4KR       0.073200
     23 H13A         2.2040     1.4370    -0.2930 h1         1 4KR       0.073200
     24 HN14        -5.1420    -1.2020    -0.6640 hn         1 4KR       0.413500
     25 HN1A        -3.8830    -1.1120    -1.6910 hn         1 4KR       0.413500
     26 H2           0.8570    -2.1790     0.1810 h1         1 4KR       0.058700
     27 O4           0.5030     2.9020    -0.2630 o          1 4KR      -0.687500
     28 O5          -0.7930     2.5230     1.5160 o          1 4KR      -0.687500
     29 H2A          1.0970    -1.8270    -1.5160 h1         1 4KR       0.058700
@<TRIPOS>BOND
     1     1     2 1   
     2     1    17 1   
     3     1    18 1   
     4     1    19 1   
     5     2     5 2   
     6     2     7 1   
     7     3     4 1   
     8     3    10 1   
     9     4     6 1   
    10     4    26 1   
    11     4    29 1   
    12     6     8 2   
    13     6    15 1   
    14     7    15 1   
    15     8     9 1   
    16     8    14 1   
    17     9    10 1   
    18     9    12 1   
    19    10    11 1   
    20    10    20 1   
    21    11    12 1   
    22    11    16 1   
    23    11    21 1   
    24    12    13 2   
    25    14    27 1   
    26    14    28 1   
    27    15    22 1   
    28    15    23 1   
    29    16    24 1   
    30    16    25 1   
@<TRIPOS>SUBSTRUCTURE
     1 4KR         1 TEMP              0 ****  ****    0 ROOT
