@<TRIPOS>MOLECULE
4KS
   17    17     1     0     0
SMALL
bcc


@<TRIPOS>ATOM
      1 C4          -1.8300     0.1900    -0.1160 ca         1 4KS       0.102100
      2 C5          -0.9590     1.2700    -0.0640 ca         1 4KS      -0.156000
      3 C6           0.4160     1.0720    -0.0130 ca         1 4KS      -0.149500
      4 O1          -3.1590     0.4410    -0.1660 oh         1 4KS      -0.497100
      5 C3          -1.3030    -1.1000    -0.1140 ca         1 4KS      -0.156000
      6 C2           0.0660    -1.2990    -0.0640 ca         1 4KS      -0.149500
      7 C1           0.9430    -0.2160    -0.0140 ca         1 4KS       0.103100
      8 O            2.2630    -0.5070     0.0320 os         1 4KS      -0.318900
      9 C            3.1830     0.5630     0.0610 c3         1 4KS       0.126700
     10 H15         -1.3530     2.2790    -0.0620 ha         1 4KS       0.138500
     11 H16          1.0570     1.9420     0.0250 ha         1 4KS       0.140000
     12 H1          -3.6530    -0.3840    -0.2250 ho         1 4KS       0.423000
     13 H14         -1.9610    -1.9610    -0.1540 ha         1 4KS       0.138500
     14 H13          0.4610    -2.3080    -0.0650 ha         1 4KS       0.140000
     15 H11          3.0580     1.1900     0.9490 h1         1 4KS       0.039033
     16 H10          4.1750     0.1200     0.0850 h1         1 4KS       0.039033
     17 H12          3.1050     1.1970    -0.8270 h1         1 4KS       0.039033
@<TRIPOS>BOND
     1     1     2 ar  
     2     1     4 1   
     3     1     5 ar  
     4     2     3 ar  
     5     2    10 1   
     6     3     7 ar  
     7     3    11 1   
     8     4    12 1   
     9     5     6 ar  
    10     5    13 1   
    11     6     7 ar  
    12     6    14 1   
    13     7     8 1   
    14     8     9 1   
    15     9    15 1   
    16     9    16 1   
    17     9    17 1   
@<TRIPOS>SUBSTRUCTURE
     1 4KS         1 TEMP              0 ****  ****    0 ROOT
