@<TRIPOS>MOLECULE
4KS
   17    17     1     0     0
SMALL
No Charge or Current Charge


@<TRIPOS>ATOM
      1 C4          -1.8640     0.2020    -0.1190 ca         1 4KS       0.102100
      2 C5          -0.9890     1.2990    -0.0720 ca         1 4KS      -0.138000
      3 C6           0.4030     1.0940    -0.0250 ca         1 4KS      -0.131500
      4 O1          -3.2100     0.4150    -0.1640 oh         1 4KS      -0.536100
      5 C3          -1.3510    -1.1060    -0.1190 ca         1 4KS      -0.138000
      6 C2           0.0400    -1.3140    -0.0720 ca         1 4KS      -0.131500
      7 C1           0.9230    -0.2200    -0.0250 ca         1 4KS       0.103100
      8 O            2.2770    -0.4860     0.0200 os         1 4KS      -0.342100
      9 C            3.2630     0.5610     0.0710 c3         1 4KS       0.149900
     10 H15         -1.3880     2.3100    -0.0710 ha         1 4KS       0.120500
     11 H16          1.0570     1.9610     0.0110 ha         1 4KS       0.122000
     12 H1          -3.6650    -0.4550    -0.1930 ho         1 4KS       0.462000
     13 H14         -2.0200    -1.9620    -0.1550 ha         1 4KS       0.120500
     14 H13          0.4370    -2.3260    -0.0720 ha         1 4KS       0.122000
     15 H11          3.1300     1.1790     0.9680 h1         1 4KS       0.039033
     16 H10          4.2720     0.1310     0.1010 h1         1 4KS       0.039033
     17 H12          3.1940     1.2050    -0.8150 h1         1 4KS       0.039033
@<TRIPOS>BOND
     1     1     2 ar  
     2     1     4 1   
     3     1     5 ar  
     4     2     3 ar  
     5     2    10 1   
     6     3     7 ar  
     7     3    11 1   
     8     4    12 1   
     9     5     6 ar  
    10     5    13 1   
    11     6     7 ar  
    12     6    14 1   
    13     7     8 1   
    14     8     9 1   
    15     9    15 1   
    16     9    16 1   
    17     9    17 1   
@<TRIPOS>SUBSTRUCTURE
     1 4KS         1 TEMP              0 ****  ****    0 ROOT
