@<TRIPOS>MOLECULE
4KT
   55    58     1     0     0
SMALL
abcg2


@<TRIPOS>ATOM
      1 C14         -2.2440    -1.0620    -1.4020 ca         1 4KT      -0.202000
      2 C16         -3.6270    -1.0650    -1.2960 ca         1 4KT      -0.089000
      3 C17         -4.2920    -0.3980    -0.2750 ca         1 4KT       0.192000
      4 C22         -7.8110     0.7680     0.0090 c6         1 4KT       0.152100
      5 C21         -7.8280    -1.5460    -0.2110 c6         1 4KT       0.152100
      6 C20         -6.3700     0.8310    -0.4570 c6         1 4KT       0.150300
      7 C19         -3.5020     0.2970     0.6600 ca         1 4KT       0.165100
      8 C18         -2.1170     0.3330     0.5500 ca         1 4KT      -0.221000
      9 C3           7.3210    -0.6590    -0.5770 ca         1 4KT      -0.022000
     10 C2           5.0740    -1.2310     0.0840 ca         1 4KT      -0.021000
     11 C4           4.6920     0.0950     0.0010 cp         1 4KT      -0.094000
     12 C5           6.9510     0.6690    -0.6780 ca         1 4KT      -0.214000
     13 C11          1.6870     1.6450     1.6260 ca         1 4KT       0.378900
     14 C9           0.9290     0.2000     0.0350 ca         1 4KT       0.624900
     15 C8           3.3000     0.4750     0.3260 cp         1 4KT       0.055000
     16 C24         -3.4360     1.6220     2.6330 c3         1 4KT       0.144900
     17 C6           5.6400     1.0570    -0.3960 ca         1 4KT       0.186100
     18 C1           6.3860    -1.6180    -0.1990 ca         1 4KT      -0.065000
     19 C7           2.2490    -0.1290    -0.3310 ca         1 4KT      -0.222000
     20 N1           0.6630     1.0690     0.9990 nb         1 4KT      -0.737000
     21 C10          3.0110     1.4010     1.3370 ca         1 4KT      -0.190000
     22 C12          6.7630    -2.9860    -0.0930 cg         1 4KT       0.329000
     23 O1           5.2000     2.3100    -0.4940 os         1 4KT      -0.328100
     24 C13          6.0960     3.3320    -0.9010 c3         1 4KT       0.145900
     25 C15         -1.4710    -0.3570    -0.4810 ca         1 4KT       0.343000
     26 O2          -4.1680     0.9090     1.6580 os         1 4KT      -0.330100
     27 N2          -5.6920    -0.4160    -0.1200 nh         1 4KT      -0.754400
     28 O3          -8.4890    -0.3430    -0.5370 os         1 4KT      -0.453000
     29 C23         -6.3910    -1.5450    -0.7010 c6         1 4KT       0.150300
     30 N3          -0.0910    -0.4100    -0.6440 nu         1 4KT      -0.942900
     31 N4           7.0690    -4.0940    -0.0040 n1         1 4KT      -0.455000
     32 H1          -1.7710    -1.6040    -2.2120 ha         1 4KT       0.110000
     33 H2          -4.1960    -1.6110    -2.0370 ha         1 4KT       0.114000
     34 H3          -7.8370     0.7320     1.1070 h1         1 4KT       0.050700
     35 H4          -8.3450     1.6650    -0.3110 h1         1 4KT       0.050700
     36 H5          -7.8410    -1.7090     0.8750 h1         1 4KT       0.050700
     37 H6          -8.3820    -2.3600    -0.6820 h1         1 4KT       0.050700
     38 H7          -6.3360     1.0170    -1.5420 h1         1 4KT       0.043450
     39 H8          -5.8800     1.6720     0.0330 h1         1 4KT       0.043450
     40 H9          -1.5210     0.8720     1.2660 ha         1 4KT       0.157000
     41 H11          4.3480    -1.9740     0.3880 ha         1 4KT       0.132000
     42 H12          7.6940     1.3930    -0.9840 ha         1 4KT       0.126000
     43 H13          1.4260     2.3440     2.4130 h4         1 4KT       0.017100
     44 H14         -2.7340     0.9790     3.1700 h1         1 4KT       0.041033
     45 H15         -2.8840     2.4610     2.2010 h1         1 4KT       0.041033
     46 H16         -4.1650     2.0120     3.3400 h1         1 4KT       0.041033
     47 H17          2.4310    -0.8460    -1.1230 ha         1 4KT       0.123000
     48 H18          3.7920     1.8920     1.8990 ha         1 4KT       0.130000
     49 H19          6.4820     3.1510    -1.9070 h1         1 4KT       0.047033
     50 H20          5.5230     4.2540    -0.9040 h1         1 4KT       0.047033
     51 H21          6.9330     3.4340    -0.2080 h1         1 4KT       0.047033
     52 H22         -5.9100    -2.4750    -0.3890 h1         1 4KT       0.043450
     53 H23         -6.3920    -1.5280    -1.8020 h1         1 4KT       0.043450
     54 H24          0.2100    -1.0050    -1.3990 hn         1 4KT       0.494000
     55 H10          8.3400    -0.9470    -0.7960 ha         1 4KT       0.126000
@<TRIPOS>BOND
     1     1     2 ar  
     2     1    25 ar  
     3     1    32 1   
     4     2     3 ar  
     5     2    33 1   
     6     3     7 ar  
     7     3    27 1   
     8     4     6 1   
     9     4    28 1   
    10     4    34 1   
    11     4    35 1   
    12     5    28 1   
    13     5    29 1   
    14     5    36 1   
    15     5    37 1   
    16     6    27 1   
    17     6    38 1   
    18     6    39 1   
    19     7     8 ar  
    20     7    26 1   
    21     8    25 ar  
    22     8    40 1   
    23     9    12 ar  
    24     9    18 ar  
    25     9    55 1   
    26    10    11 ar  
    27    10    18 ar  
    28    10    41 1   
    29    11    15 1   
    30    11    17 ar  
    31    12    17 ar  
    32    12    42 1   
    33    13    20 ar  
    34    13    21 ar  
    35    13    43 1   
    36    14    19 ar  
    37    14    20 ar  
    38    14    30 1   
    39    15    19 ar  
    40    15    21 ar  
    41    16    26 1   
    42    16    44 1   
    43    16    45 1   
    44    16    46 1   
    45    17    23 1   
    46    18    22 1   
    47    19    47 1   
    48    21    48 1   
    49    22    31 3   
    50    23    24 1   
    51    24    49 1   
    52    24    50 1   
    53    24    51 1   
    54    25    30 1   
    55    27    29 1   
    56    29    52 1   
    57    29    53 1   
    58    30    54 1   
@<TRIPOS>SUBSTRUCTURE
     1 4KT         1 TEMP              0 ****  ****    0 ROOT
