@<TRIPOS>MOLECULE
4KT
   55    58     1     0     0
SMALL
No Charge or Current Charge


@<TRIPOS>ATOM
      1 C14         -2.2780    -0.8050    -1.6600 ca         1 4KT      -0.202000
      2 C16         -3.6800    -0.8060    -1.5670 ca         1 4KT      -0.089000
      3 C17         -4.3280    -0.3500    -0.4010 ca         1 4KT       0.192000
      4 C22         -7.9300     0.7120     0.3940 c6         1 4KT       0.152100
      5 C21         -7.9710    -1.5830    -0.3320 c6         1 4KT       0.152100
      6 C20         -6.5080     0.9300    -0.2080 c6         1 4KT       0.150300
      7 C19         -3.5280     0.1010     0.6910 ca         1 4KT       0.165100
      8 C18         -2.1190     0.0940     0.5810 ca         1 4KT      -0.221000
      9 C3           7.4140    -0.7820    -0.1910 ca         1 4KT      -0.022000
     10 C2           5.0680    -1.1760     0.3170 ca         1 4KT      -0.021000
     11 C4           4.7460     0.1740     0.0270 cp         1 4KT      -0.094000
     12 C5           7.1220     0.5590    -0.4920 ca         1 4KT      -0.214000
     13 C11          1.6330     2.2090     0.9260 ca         1 4KT       0.378900
     14 C9           0.9420     0.3310    -0.1970 ca         1 4KT       0.624900
     15 C8           3.3300     0.6370     0.1590 cp         1 4KT       0.055000
     16 C24         -3.4260     0.9980     3.0040 c3         1 4KT       0.144900
     17 C6           5.7980     1.0380    -0.3870 ca         1 4KT       0.186100
     18 C1           6.3870    -1.6530     0.2120 ca         1 4KT      -0.065000
     19 C7           2.2570    -0.1210    -0.3580 ca         1 4KT      -0.222000
     20 N1           0.6230     1.4730     0.4160 nb         1 4KT      -0.737000
     21 C10          2.9800     1.8310     0.8260 ca         1 4KT      -0.190000
     22 C12          6.6850    -3.0240     0.5170 cg         1 4KT       0.329000
     23 O1           5.4640     2.3400    -0.7070 os         1 4KT      -0.328100
     24 C13          6.4380     3.3000    -1.1530 c3         1 4KT       0.145900
     25 C15         -1.4940    -0.3410    -0.5960 ca         1 4KT       0.343000
     26 O2          -4.1530     0.5180     1.8600 os         1 4KT      -0.330100
     27 N2          -5.7520    -0.3570    -0.3400 nh         1 4KT      -0.754400
     28 O3          -8.6500    -0.3040    -0.3440 os         1 4KT      -0.453000
     29 C23         -6.5500    -1.4640    -0.9610 c6         1 4KT       0.150300
     30 N3          -0.1080    -0.3820    -0.7340 nu         1 4KT      -0.942900
     31 N4           6.9160    -4.1410     0.7680 n1         1 4KT      -0.455000
     32 H1          -1.8050    -1.1580    -2.5720 ha         1 4KT       0.110000
     33 H2          -4.2630    -1.1530    -2.4150 ha         1 4KT       0.114000
     34 H3          -7.8460     0.4040     1.4460 h1         1 4KT       0.050700
     35 H4          -8.4970     1.6530     0.3590 h1         1 4KT       0.050700
     36 H5          -7.8900    -1.9380     0.7060 h1         1 4KT       0.050700
     37 H6          -8.5680    -2.3140    -0.8950 h1         1 4KT       0.050700
     38 H7          -6.6110     1.4020    -1.1960 h1         1 4KT       0.043450
     39 H8          -5.9640     1.6390     0.4320 h1         1 4KT       0.043450
     40 H9          -1.4990     0.4090     1.4100 ha         1 4KT       0.157000
     41 H11          4.2790    -1.8540     0.6380 ha         1 4KT       0.132000
     42 H12          7.9350     1.2060    -0.8090 ha         1 4KT       0.126000
     43 H13          1.3540     3.1310     1.4340 h4         1 4KT       0.017100
     44 H14         -2.7570     0.2210     3.3960 h1         1 4KT       0.041033
     45 H15         -2.8280     1.8810     2.7440 h1         1 4KT       0.041033
     46 H16         -4.1210     1.2820     3.8030 h1         1 4KT       0.041033
     47 H17          2.4490    -1.0500    -0.8840 ha         1 4KT       0.123000
     48 H18          3.7440     2.4620     1.2700 ha         1 4KT       0.130000
     49 H19          6.9190     2.9660    -2.0810 h1         1 4KT       0.047033
     50 H20          5.9570     4.2660    -1.3500 h1         1 4KT       0.047033
     51 H21          7.2120     3.4550    -0.3900 h1         1 4KT       0.047033
     52 H22         -6.0300    -2.4240    -0.8330 h1         1 4KT       0.043450
     53 H23         -6.6570    -1.2890    -2.0420 h1         1 4KT       0.043450
     54 H24          0.2060    -1.0320    -1.4480 hn         1 4KT       0.494000
     55 H10          8.4380    -1.1430    -0.2750 ha         1 4KT       0.126000
@<TRIPOS>BOND
     1     1     2 ar  
     2     1    25 ar  
     3     1    32 1   
     4     2     3 ar  
     5     2    33 1   
     6     3     7 ar  
     7     3    27 1   
     8     4     6 1   
     9     4    28 1   
    10     4    34 1   
    11     4    35 1   
    12     5    28 1   
    13     5    29 1   
    14     5    36 1   
    15     5    37 1   
    16     6    27 1   
    17     6    38 1   
    18     6    39 1   
    19     7     8 ar  
    20     7    26 1   
    21     8    25 ar  
    22     8    40 1   
    23     9    12 ar  
    24     9    18 ar  
    25     9    55 1   
    26    10    11 ar  
    27    10    18 ar  
    28    10    41 1   
    29    11    15 1   
    30    11    17 ar  
    31    12    17 ar  
    32    12    42 1   
    33    13    20 ar  
    34    13    21 ar  
    35    13    43 1   
    36    14    19 ar  
    37    14    20 ar  
    38    14    30 1   
    39    15    19 ar  
    40    15    21 ar  
    41    16    26 1   
    42    16    44 1   
    43    16    45 1   
    44    16    46 1   
    45    17    23 1   
    46    18    22 1   
    47    19    47 1   
    48    21    48 1   
    49    22    31 3   
    50    23    24 1   
    51    24    49 1   
    52    24    50 1   
    53    24    51 1   
    54    25    30 1   
    55    27    29 1   
    56    29    52 1   
    57    29    53 1   
    58    30    54 1   
@<TRIPOS>SUBSTRUCTURE
     1 4KT         1 TEMP              0 ****  ****    0 ROOT
