@<TRIPOS>MOLECULE
4KU
   46    47     1     0     0
SMALL
No Charge or Current Charge


@<TRIPOS>ATOM
      1 OAE         -3.6540     3.8830    -0.4940 o          1 4KU      -0.699533
      2 SBA         -2.3780     3.1550    -0.4250 s6         1 4KU       1.259600
      3 OAA         -1.6420     3.0450    -1.6940 o          1 4KU      -0.699533
      4 OAB         -1.5540     3.4270     0.7620 o          1 4KU      -0.699533
      5 CAY         -2.9130     1.3810    -0.1420 ca         1 4KU      -0.203500
      6 CAO         -4.2940     1.0690    -0.2270 ca         1 4KU      -0.083500
      7 CAU         -4.7710    -0.2330    -0.0220 ca         1 4KU       0.224000
      8 NAS         -6.1410    -0.4920    -0.1110 nu         1 4KU      -0.926700
      9 CAI         -6.7550    -1.7580    -0.4600 c3         1 4KU       0.425800
     10 SAG         -8.4120    -1.2690    -1.0640 sh         1 4KU      -0.574800
     11 CAK         -3.8610    -1.2530     0.2830 ca         1 4KU      -0.132500
     12 CAM         -2.4890    -0.9740     0.3670 ca         1 4KU      -0.112000
     13 CAW         -1.9850     0.3320     0.1470 ca         1 4KU       0.009200
     14 CAQ         -0.4670     0.6030     0.2440 c3         1 4KU      -0.053100
     15 CAR          0.4700    -0.6370     0.2280 c3         1 4KU      -0.053100
     16 CAX          1.9880    -0.3630     0.1300 ca         1 4KU       0.009200
     17 CAN          2.4930     0.9380     0.3760 ca         1 4KU      -0.112000
     18 CAL          3.8640     1.2180     0.2930 ca         1 4KU      -0.132500
     19 CAV          4.7730     0.2060    -0.0390 ca         1 4KU       0.224000
     20 NAT          6.1430     0.4670    -0.1280 nu         1 4KU      -0.926700
     21 CAJ          6.7550     1.7390    -0.4530 c3         1 4KU       0.425800
     22 SAH          8.4090     1.2630    -1.0750 sh         1 4KU      -0.574800
     23 CAP          4.2950    -1.0920    -0.2700 ca         1 4KU      -0.083500
     24 CAZ          2.9140    -1.4060    -0.1850 ca         1 4KU      -0.203500
     25 SBB          2.3780    -3.1740    -0.5040 s6         1 4KU       1.259600
     26 OAF          1.5590    -3.4710     0.6800 o          1 4KU      -0.699533
     27 OAD          1.6370    -3.0360    -1.7670 o          1 4KU      -0.699533
     28 OAC          3.6540    -3.9000    -0.5940 o          1 4KU      -0.699533
     29 H1          -5.0170     1.8460    -0.4580 ha         1 4KU       0.126000
     30 H2          -6.7340     0.3110    -0.3060 hn         1 4KU       0.470000
     31 H3          -6.2220    -2.2710    -1.2710 h2         1 4KU       0.050200
     32 H4          -6.8760    -2.4150     0.4110 h2         1 4KU       0.050200
     33 H5          -8.8250    -2.5310    -1.3330 hs         1 4KU       0.196300
     34 H6          -4.2090    -2.2660     0.4620 ha         1 4KU       0.096000
     35 H7          -1.8270    -1.8000     0.6110 ha         1 4KU       0.122500
     36 H8          -0.1580     1.2400    -0.5910 hc         1 4KU       0.077200
     37 H9          -0.2750     1.1620     1.1670 hc         1 4KU       0.077200
     38 H10          0.2820    -1.2160     1.1400 hc         1 4KU       0.077200
     39 H11          0.1570    -1.2560    -0.6190 hc         1 4KU       0.077200
     40 H12          1.8320     1.7580     0.6410 ha         1 4KU       0.122500
     41 H13          4.2130     2.2280     0.4920 ha         1 4KU       0.096000
     42 H14          6.7350    -0.3320    -0.3430 hn         1 4KU       0.470000
     43 H15          6.2180     2.2690    -1.2500 h2         1 4KU       0.050200
     44 H16          6.8800     2.3780     0.4310 h2         1 4KU       0.050200
     45 H17          8.8210     2.5310    -1.3190 hs         1 4KU       0.196300
     46 H18          5.0170    -1.8640    -0.5200 ha         1 4KU       0.126000
@<TRIPOS>BOND
     1     1     2 1   
     2     2     3 1   
     3     2     4 1   
     4     2     5 1   
     5     5     6 ar  
     6     5    13 ar  
     7     6     7 ar  
     8     6    29 1   
     9     7     8 1   
    10     7    11 ar  
    11     8     9 1   
    12     8    30 1   
    13     9    10 1   
    14     9    31 1   
    15     9    32 1   
    16    10    33 1   
    17    11    12 ar  
    18    11    34 1   
    19    12    13 ar  
    20    12    35 1   
    21    13    14 1   
    22    14    15 1   
    23    14    36 1   
    24    14    37 1   
    25    15    16 1   
    26    15    38 1   
    27    15    39 1   
    28    16    17 ar  
    29    16    24 ar  
    30    17    18 ar  
    31    17    40 1   
    32    18    19 ar  
    33    18    41 1   
    34    19    20 1   
    35    19    23 ar  
    36    20    21 1   
    37    20    42 1   
    38    21    22 1   
    39    21    43 1   
    40    21    44 1   
    41    22    45 1   
    42    23    24 ar  
    43    23    46 1   
    44    24    25 1   
    45    25    26 1   
    46    25    27 1   
    47    25    28 1   
@<TRIPOS>SUBSTRUCTURE
     1 4KU         1 TEMP              0 ****  ****    0 ROOT
