@<TRIPOS>MOLECULE
4KU
   46    47     1     0     0
SMALL
abcg2


@<TRIPOS>ATOM
      1 OAE         -3.4970     3.9880    -0.2990 o          1 4KU      -0.699533
      2 SBA         -2.2710     3.1690    -0.3230 s6         1 4KU       1.259600
      3 OAA         -1.5040     3.3350    -1.5710 o          1 4KU      -0.699533
      4 OAB         -1.4580     3.3310     0.8950 o          1 4KU      -0.699533
      5 CAY         -2.8250     1.4540    -0.3170 ca         1 4KU      -0.203500
      6 CAO         -4.1900     1.2350    -0.3560 ca         1 4KU      -0.083500
      7 CAU         -4.7220    -0.0600    -0.3620 ca         1 4KU       0.224000
      8 NAS         -6.0900    -0.2220    -0.4530 nu         1 4KU      -0.926700
      9 CAI         -6.7360    -1.4610    -0.2270 c3         1 4KU       0.425800
     10 SAG         -6.6400    -1.9670     1.5600 sh         1 4KU      -0.574800
     11 CAK         -3.8300    -1.1270    -0.3150 ca         1 4KU      -0.132500
     12 CAM         -2.4620    -0.8890    -0.2820 ca         1 4KU      -0.112000
     13 CAW         -1.9100     0.3870    -0.2820 ca         1 4KU       0.009200
     14 CAQ         -0.4160     0.6110    -0.2390 c3         1 4KU      -0.053100
     15 CAR          0.4230    -0.6470    -0.3950 c3         1 4KU      -0.053100
     16 CAX          1.9170    -0.4210    -0.3680 ca         1 4KU       0.009200
     17 CAN          2.4670     0.8560    -0.3710 ca         1 4KU      -0.112000
     18 CAL          3.8350     1.0950    -0.3570 ca         1 4KU      -0.132500
     19 CAV          4.7290     0.0290    -0.3490 ca         1 4KU       0.224000
     20 NAT          6.0990     0.1910    -0.3950 nu         1 4KU      -0.926700
     21 CAJ          6.7360     1.4400    -0.2070 c3         1 4KU       0.425800
     22 SAH          6.6030     2.0210     1.5560 sh         1 4KU      -0.574800
     23 CAP          4.1990    -1.2660    -0.3360 ca         1 4KU      -0.083500
     24 CAZ          2.8340    -1.4880    -0.3440 ca         1 4KU      -0.203500
     25 SBB          2.2820    -3.2030    -0.3210 s6         1 4KU       1.259600
     26 OAF          1.5260    -3.3630     0.9340 o          1 4KU      -0.699533
     27 OAD          1.4580    -3.3720    -1.5310 o          1 4KU      -0.699533
     28 OAC          3.5080    -4.0210    -0.3500 o          1 4KU      -0.699533
     29 H1          -4.8670     2.0790    -0.3860 ha         1 4KU       0.126000
     30 H2          -6.6370     0.5930    -0.2250 hn         1 4KU       0.470000
     31 H3          -7.7830    -1.3670    -0.5000 h2         1 4KU       0.050200
     32 H4          -6.2940    -2.2520    -0.8310 h2         1 4KU       0.050200
     33 H5          -7.3210    -3.1130     1.4400 hs         1 4KU       0.196300
     34 H6          -4.1800    -2.1510    -0.2960 ha         1 4KU       0.096000
     35 H7          -1.8120    -1.7530    -0.2500 ha         1 4KU       0.122500
     36 H8          -0.1620     1.3240    -1.0250 hc         1 4KU       0.077200
     37 H9          -0.1580     1.1060     0.7000 hc         1 4KU       0.077200
     38 H10          0.1740    -1.3570     0.3950 hc         1 4KU       0.077200
     39 H11          0.1570    -1.1460    -1.3300 hc         1 4KU       0.077200
     40 H12          1.8160     1.7190    -0.3780 ha         1 4KU       0.122500
     41 H13          4.1830     2.1200    -0.3430 ha         1 4KU       0.096000
     42 H14          6.6410    -0.6140    -0.1260 hn         1 4KU       0.470000
     43 H15          7.7890     1.3390    -0.4550 h2         1 4KU       0.050200
     44 H16          6.3030     2.2040    -0.8510 h2         1 4KU       0.050200
     45 H17          7.2370     3.1870     1.3900 hs         1 4KU       0.196300
     46 H18          4.8770    -2.1100    -0.3230 ha         1 4KU       0.126000
@<TRIPOS>BOND
     1     1     2 1   
     2     2     3 1   
     3     2     4 1   
     4     2     5 1   
     5     5     6 ar  
     6     5    13 ar  
     7     6     7 ar  
     8     6    29 1   
     9     7     8 1   
    10     7    11 ar  
    11     8     9 1   
    12     8    30 1   
    13     9    10 1   
    14     9    31 1   
    15     9    32 1   
    16    10    33 1   
    17    11    12 ar  
    18    11    34 1   
    19    12    13 ar  
    20    12    35 1   
    21    13    14 1   
    22    14    15 1   
    23    14    36 1   
    24    14    37 1   
    25    15    16 1   
    26    15    38 1   
    27    15    39 1   
    28    16    17 ar  
    29    16    24 ar  
    30    17    18 ar  
    31    17    40 1   
    32    18    19 ar  
    33    18    41 1   
    34    19    20 1   
    35    19    23 ar  
    36    20    21 1   
    37    20    42 1   
    38    21    22 1   
    39    21    43 1   
    40    21    44 1   
    41    22    45 1   
    42    23    24 ar  
    43    23    46 1   
    44    24    25 1   
    45    25    26 1   
    46    25    27 1   
    47    25    28 1   
@<TRIPOS>SUBSTRUCTURE
     1 4KU         1 TEMP              0 ****  ****    0 ROOT
