@<TRIPOS>MOLECULE
4KY
   44    44     1     0     0
SMALL
bcc


@<TRIPOS>ATOM
      1 C13         -8.2500     0.5080     0.2380 c2         1 4KY      -0.158200
      2 C14         -6.9330     0.2030     0.8770 c3         1 4KY      -0.047200
      3 C15         -5.7870     0.1840    -0.1370 c3         1 4KY      -0.072400
      4 C16         -4.4330    -0.0840     0.5070 c3         1 4KY      -0.075400
      5 C17         -3.2910    -0.0970    -0.5010 c3         1 4KY      -0.073400
      6 C18         -1.9440    -0.4230     0.1330 c3         1 4KY      -0.081400
      7 C19         -0.8230    -0.4310    -0.8880 c3         1 4KY       0.143400
      8 C            4.7300    -0.8850     0.6920 c          1 4KY       0.937600
      9 O            5.5000    -0.4820    -0.1970 o          1 4KY      -0.827800
     10 CA           3.2270    -0.5980     0.5070 c5         1 4KY      -0.022300
     11 CB           2.5770    -1.6890    -0.3550 c5         1 4KY      -0.072400
     12 CG           1.4780    -0.9680    -1.1170 c5         1 4KY       0.122100
     13 CD           2.1400     0.3710    -1.4300 c5         1 4KY       0.083000
     14 N            2.9440     0.6140    -0.2460 n          1 4KY      -0.441800
     15 C43          3.3800     1.8060     0.1810 c          1 4KY       0.679100
     16 O6           3.9780     1.9310     1.2460 o          1 4KY      -0.606100
     17 C44          3.0780     2.9930    -0.7030 c3         1 4KY      -0.175100
     18 O5           0.3740    -0.8210    -0.2550 os         1 4KY      -0.399600
     19 C12         -9.3080    -0.2940     0.2390 c2         1 4KY      -0.229000
     20 H24         -8.3160     1.4650    -0.2760 ha         1 4KY       0.112000
     21 H26         -6.7170     0.9650     1.6340 hc         1 4KY       0.044700
     22 H27         -6.9830    -0.7550     1.4010 hc         1 4KY       0.044700
     23 H29         -5.9880    -0.5810    -0.8940 hc         1 4KY       0.037700
     24 H28         -5.7580     1.1410    -0.6680 hc         1 4KY       0.037700
     25 H31         -4.2370     0.6760     1.2710 hc         1 4KY       0.040200
     26 H30         -4.4640    -1.0440     1.0320 hc         1 4KY       0.040200
     27 H32         -3.5080    -0.8310    -1.2840 hc         1 4KY       0.033700
     28 H33         -3.2390     0.8770    -1.0020 hc         1 4KY       0.033700
     29 H34         -1.7190     0.3060     0.9170 hc         1 4KY       0.053700
     30 H35         -1.9960    -1.4040     0.6150 hc         1 4KY       0.053700
     31 H36         -1.0650    -1.1270    -1.7040 h1         1 4KY       0.008700
     32 H37         -0.7310     0.5660    -1.3430 h1         1 4KY       0.008700
     33 HA           2.7410    -0.5490     1.4860 h1         1 4KY       0.058700
     34 HB3          3.2960    -2.0840    -1.0770 hc         1 4KY       0.057700
     35 HB2          2.2030    -2.5280     0.2300 hc         1 4KY       0.057700
     36 HG2          1.1840    -1.4940    -2.0340 h1         1 4KY       0.024700
     37 HD3          2.7570     0.2870    -2.3310 h1         1 4KY       0.031200
     38 HD2          1.4120     1.1650    -1.6020 h1         1 4KY       0.031200
     39 H73          2.0100     3.2190    -0.6980 hc         1 4KY       0.039367
     40 H71          3.6100     3.8680    -0.3380 hc         1 4KY       0.039367
     41 H72          3.3640     2.8160    -1.7410 hc         1 4KY       0.039367
     42 H22         -9.2920    -1.2580     0.7350 ha         1 4KY       0.108500
     43 H23        -10.2310    -0.0180    -0.2550 ha         1 4KY       0.108500
     44 OXT          5.0190    -1.5670     1.6950 o          1 4KY      -0.827800
@<TRIPOS>BOND
     1     1     2 1   
     2     1    19 2   
     3     1    20 1   
     4     2     3 1   
     5     2    21 1   
     6     2    22 1   
     7     3     4 1   
     8     3    23 1   
     9     3    24 1   
    10     4     5 1   
    11     4    25 1   
    12     4    26 1   
    13     5     6 1   
    14     5    27 1   
    15     5    28 1   
    16     6     7 1   
    17     6    29 1   
    18     6    30 1   
    19     7    18 1   
    20     7    31 1   
    21     7    32 1   
    22     8     9 1   
    23     8    10 1   
    24     8    44 1   
    25    10    11 1   
    26    10    14 1   
    27    10    33 1   
    28    11    12 1   
    29    11    34 1   
    30    11    35 1   
    31    12    13 1   
    32    12    18 1   
    33    12    36 1   
    34    13    14 1   
    35    13    37 1   
    36    13    38 1   
    37    14    15 1   
    38    15    16 2   
    39    15    17 1   
    40    17    39 1   
    41    17    40 1   
    42    17    41 1   
    43    19    42 1   
    44    19    43 1   
@<TRIPOS>SUBSTRUCTURE
     1 4KY         1 TEMP              0 ****  ****    0 ROOT
