@<TRIPOS>MOLECULE
4KY
   44    44     1     0     0
SMALL
No Charge or Current Charge


@<TRIPOS>ATOM
      1 C13         -8.2450     0.6390     0.4630 c2         1 4KY      -0.208200
      2 C14         -6.9190     0.1450     1.0050 c3         1 4KY      -0.047200
      3 C15         -5.7870     0.2530    -0.0380 c3         1 4KY      -0.072400
      4 C16         -4.4240    -0.2480     0.4920 c3         1 4KY      -0.075400
      5 C17         -3.2930    -0.1380    -0.5530 c3         1 4KY      -0.073400
      6 C18         -1.9300    -0.6390    -0.0250 c3         1 4KY      -0.080400
      7 C19         -0.8040    -0.5270    -1.0690 c3         1 4KY       0.166600
      8 C            4.5430    -0.8150     1.1200 c          1 4KY       0.727000
      9 O            5.5080    -0.6830     0.3750 o          1 4KY      -0.722500
     10 CA           3.0950    -0.5690     0.5690 c5         1 4KY      -0.022300
     11 CB           2.7180    -1.7090    -0.4290 c5         1 4KY      -0.072400
     12 CG           1.5990    -1.0640    -1.2830 c5         1 4KY       0.145300
     13 CD           2.1460     0.3810    -1.5170 c5         1 4KY       0.083000
     14 N            2.9030     0.6520    -0.2720 n          1 4KY      -0.374800
     15 C43          3.3010     1.9430     0.1370 c          1 4KY       0.612100
     16 O6           3.7880     2.1380     1.2440 o          1 4KY      -0.606100
     17 C44          3.1260     3.1050    -0.8480 c3         1 4KY      -0.175100
     18 O5           0.4010    -1.0210    -0.4620 os         1 4KY      -0.446000
     19 C12         -9.3410    -0.1170     0.2910 c2         1 4KY      -0.329000
     20 H24         -8.2620     1.7020     0.2110 ha         1 4KY       0.162000
     21 H26         -6.6470     0.7240     1.8950 hc         1 4KY       0.044700
     22 H27         -7.0060    -0.9000     1.3290 hc         1 4KY       0.044700
     23 H29         -6.0630    -0.3260    -0.9280 hc         1 4KY       0.037700
     24 H28         -5.6880     1.2990    -0.3540 hc         1 4KY       0.037700
     25 H31         -4.1490     0.3310     1.3830 hc         1 4KY       0.040200
     26 H30         -4.5230    -1.2940     0.8070 hc         1 4KY       0.040200
     27 H32         -3.5670    -0.7170    -1.4440 hc         1 4KY       0.033700
     28 H33         -3.1930     0.9080    -0.8690 hc         1 4KY       0.033700
     29 H34         -1.6510    -0.0590     0.8640 hc         1 4KY       0.053700
     30 H35         -2.0250    -1.6860     0.2870 hc         1 4KY       0.053700
     31 H36         -1.0620    -1.1230    -1.9550 h1         1 4KY       0.008700
     32 H37         -0.6960     0.5210    -1.3730 h1         1 4KY       0.008700
     33 HA           2.4010    -0.5480     1.4190 h1         1 4KY       0.058700
     34 HB3          3.5660    -1.9830    -1.0680 hc         1 4KY       0.057700
     35 HB2          2.3920    -2.6220     0.0810 hc         1 4KY       0.057700
     36 HG2          1.3920    -1.6110    -2.2120 h1         1 4KY       0.024700
     37 HD3          2.8200     0.4070    -2.3830 h1         1 4KY       0.031200
     38 HD2          1.3470     1.1120    -1.6870 h1         1 4KY       0.031200
     39 H73          2.0600     3.2300    -1.0680 hc         1 4KY       0.039367
     40 H71          3.5580     4.0420    -0.4770 hc         1 4KY       0.039367
     41 H72          3.5410     2.8260    -1.8240 hc         1 4KY       0.039367
     42 H22         -9.3520    -1.1800     0.5350 ha         1 4KY       0.158500
     43 H23        -10.2670     0.3040    -0.1040 ha         1 4KY       0.158500
     44 OXT          4.6790    -1.1340     2.2940 o          1 4KY      -0.722500
@<TRIPOS>BOND
     1     1     2 1   
     2     1    19 2   
     3     1    20 1   
     4     2     3 1   
     5     2    21 1   
     6     2    22 1   
     7     3     4 1   
     8     3    23 1   
     9     3    24 1   
    10     4     5 1   
    11     4    25 1   
    12     4    26 1   
    13     5     6 1   
    14     5    27 1   
    15     5    28 1   
    16     6     7 1   
    17     6    29 1   
    18     6    30 1   
    19     7    18 1   
    20     7    31 1   
    21     7    32 1   
    22     8     9 1   
    23     8    10 1   
    24     8    44 1   
    25    10    11 1   
    26    10    14 1   
    27    10    33 1   
    28    11    12 1   
    29    11    34 1   
    30    11    35 1   
    31    12    13 1   
    32    12    18 1   
    33    12    36 1   
    34    13    14 1   
    35    13    37 1   
    36    13    38 1   
    37    14    15 1   
    38    15    16 2   
    39    15    17 1   
    40    17    39 1   
    41    17    40 1   
    42    17    41 1   
    43    19    42 1   
    44    19    43 1   
@<TRIPOS>SUBSTRUCTURE
     1 4KY         1 TEMP              0 ****  ****    0 ROOT
