@<TRIPOS>MOLECULE
4L0
   40    40     1     0     0
SMALL
No Charge or Current Charge


@<TRIPOS>ATOM
      1 N           -3.4740    28.1540    69.7760 n          1 4L0      -0.375800
      2 C14         -9.6170    28.1510    68.2820 c3         1 4L0      -0.071400
      3 C15         -8.2950    28.8340    67.8690 c3         1 4L0      -0.075400
      4 C16         -7.5550    28.0810    66.7370 c3         1 4L0      -0.103400
      5 C           -5.0270    27.2020    71.6360 c          1 4L0       0.729000
      6 O           -4.3150    26.2510    71.9360 o          1 4L0      -0.722500
      7 CA          -4.8710    27.8790    70.2280 c5         1 4L0      -0.021300
      8 CB          -5.3710    26.9030    69.1180 c5         1 4L0      -0.103400
      9 CD          -3.2360    27.7540    68.3680 c5         1 4L0       0.109000
     10 C41         -2.5280    28.8470    70.5610 c          1 4L0       0.614100
     11 O6          -2.8260    29.3090    71.6550 o          1 4L0      -0.607100
     12 C42         -1.1010    28.9920    70.0200 c3         1 4L0      -0.175100
     13 CG          -4.6690    27.4450    67.8410 c5         1 4L0       0.139300
     14 O5          -5.2720    28.7100    67.4440 os         1 4L0      -0.450000
     15 C17         -6.2040    28.7200    66.3400 c3         1 4L0       0.169600
     16 C13        -10.3550    28.8990    69.4140 c3         1 4L0      -0.078400
     17 C12        -11.6730    28.2180    69.8270 c3         1 4L0      -0.085100
     18 H27        -10.2750    28.0820    67.4070 hc         1 4L0       0.029700
     19 H26         -9.4060    27.1250    68.6070 hc         1 4L0       0.029700
     20 H28         -8.5050    29.8590    67.5390 hc         1 4L0       0.053700
     21 H29         -7.6440    28.9150    68.7480 hc         1 4L0       0.053700
     22 H30         -7.4060    27.0300    67.0060 hc         1 4L0       0.033700
     23 H31         -8.1980    28.0730    65.8490 hc         1 4L0       0.033700
     24 HA          -5.4540    28.8090    70.2240 h1         1 4L0       0.053700
     25 HB3         -6.4620    26.8700    69.0570 hc         1 4L0       0.054200
     26 HB2         -5.0410    25.8770    69.3140 hc         1 4L0       0.054200
     27 HD3         -2.5990    26.8610    68.3270 h1         1 4L0       0.035700
     28 HD2         -2.7560    28.5490    67.7830 h1         1 4L0       0.035700
     29 H69         -0.4200    29.4510    70.7460 hc         1 4L0       0.040367
     30 H67         -0.7350    28.0160    69.6800 hc         1 4L0       0.040367
     31 H68         -1.1280    29.5740    69.0910 hc         1 4L0       0.040367
     32 HG2         -4.6690    26.7420    66.9970 h1         1 4L0       0.024700
     33 H32         -5.7840    28.1830    65.4790 h1         1 4L0       0.026700
     34 H33         -6.3880    29.7550    66.0210 h1         1 4L0       0.026700
     35 H24         -9.6990    28.9670    70.2910 hc         1 4L0       0.044700
     36 H22        -12.1590    28.7830    70.6320 hc         1 4L0       0.025367
     37 H23        -12.3660    28.1650    68.9780 hc         1 4L0       0.025367
     38 OXT         -5.8610    27.6480    72.4140 o          1 4L0      -0.722500
     39 H25        -10.5690    29.9260    69.0930 hc         1 4L0       0.044700
     40 H2         -11.4880    27.1980    70.1870 hc         1 4L0       0.025367
@<TRIPOS>BOND
     1     1     7 1   
     2     1     9 1   
     3     1    10 1   
     4     2     3 1   
     5     2    16 1   
     6     2    18 1   
     7     2    19 1   
     8     3     4 1   
     9     3    20 1   
    10     3    21 1   
    11     4    15 1   
    12     4    22 1   
    13     4    23 1   
    14     5     6 1   
    15     5     7 1   
    16     5    38 1   
    17     7     8 1   
    18     7    24 1   
    19     8    13 1   
    20     8    25 1   
    21     8    26 1   
    22     9    13 1   
    23     9    27 1   
    24     9    28 1   
    25    10    11 2   
    26    10    12 1   
    27    12    29 1   
    28    12    30 1   
    29    12    31 1   
    30    13    14 1   
    31    13    32 1   
    32    14    15 1   
    33    15    33 1   
    34    15    34 1   
    35    16    17 1   
    36    16    35 1   
    37    16    39 1   
    38    17    36 1   
    39    17    37 1   
    40    17    40 1   
@<TRIPOS>SUBSTRUCTURE
     1 4L0         1 TEMP              0 ****  ****    0 ROOT
