@<TRIPOS>MOLECULE
4L0
   40    40     1     0     0
SMALL
abcg2


@<TRIPOS>ATOM
      1 N           -3.5580    28.1310    69.7770 n          1 4L0      -0.375800
      2 C14         -9.5730    28.2510    68.2930 c3         1 4L0      -0.071400
      3 C15         -8.2020    28.8030    67.9230 c3         1 4L0      -0.075400
      4 C16         -7.5340    28.0220    66.7990 c3         1 4L0      -0.103400
      5 C           -4.8090    26.8520    71.5600 c          1 4L0       0.729000
      6 O           -3.7800    26.1880    71.7720 o          1 4L0      -0.722500
      7 CA          -4.8570    27.6800    70.2560 c5         1 4L0      -0.021300
      8 CB          -5.3550    26.8100    69.0960 c5         1 4L0      -0.103400
      9 CD          -3.2730    27.6760    68.4270 c5         1 4L0       0.109000
     10 C41         -2.7790    28.9310    70.5190 c          1 4L0       0.614100
     11 O6          -3.1400    29.3550    71.6120 o          1 4L0      -0.607100
     12 C42         -1.4400    29.3060    69.9260 c3         1 4L0      -0.175100
     13 CG          -4.6610    27.3930    67.8670 c5         1 4L0       0.139300
     14 O5          -5.2180    28.6200    67.4510 os         1 4L0      -0.450000
     15 C17         -6.1620    28.5490    66.4040 c3         1 4L0       0.169600
     16 C13        -10.2370    29.0110    69.4340 c3         1 4L0      -0.078400
     17 C12        -11.6140    28.4680    69.7890 c3         1 4L0      -0.085100
     18 H27        -10.2250    28.2720    67.4130 hc         1 4L0       0.029700
     19 H26         -9.4750    27.1960    68.5720 hc         1 4L0       0.029700
     20 H28         -8.3010    29.8530    67.6270 hc         1 4L0       0.053700
     21 H29         -7.5640    28.8000    68.8120 hc         1 4L0       0.053700
     22 H30         -7.4720    26.9620    67.0650 hc         1 4L0       0.033700
     23 H31         -8.1600    28.0650    65.9020 hc         1 4L0       0.033700
     24 HA          -5.5220    28.5380    70.3920 h1         1 4L0       0.053700
     25 HB3         -6.4410    26.7860    69.0280 hc         1 4L0       0.054200
     26 HB2         -5.0110    25.7790    69.2230 hc         1 4L0       0.054200
     27 HD3         -2.6740    26.7590    68.4270 h1         1 4L0       0.035700
     28 HD2         -2.7430    28.4240    67.8380 h1         1 4L0       0.035700
     29 H69         -0.8330    29.8030    70.6780 hc         1 4L0       0.040367
     30 H67         -0.8940    28.4380    69.5530 hc         1 4L0       0.040367
     31 H68         -1.5670    29.9920    69.0850 hc         1 4L0       0.040367
     32 HG2         -4.6160    26.6820    67.0330 h1         1 4L0       0.024700
     33 H32         -5.7660    27.9430    65.5770 h1         1 4L0       0.026700
     34 H33         -6.2640    29.5710    66.0310 h1         1 4L0       0.026700
     35 H24         -9.5900    28.9740    70.3160 hc         1 4L0       0.044700
     36 H22        -12.0650    29.0250    70.6120 hc         1 4L0       0.025367
     37 H23        -12.2930    28.5290    68.9370 hc         1 4L0       0.025367
     38 OXT         -5.8540    26.8800    72.2380 o          1 4L0      -0.722500
     39 H25        -10.3200    30.0690    69.1650 hc         1 4L0       0.044700
     40 H2         -11.5590    27.4200    70.0910 hc         1 4L0       0.025367
@<TRIPOS>BOND
     1     1     7 1   
     2     1     9 1   
     3     1    10 1   
     4     2     3 1   
     5     2    16 1   
     6     2    18 1   
     7     2    19 1   
     8     3     4 1   
     9     3    20 1   
    10     3    21 1   
    11     4    15 1   
    12     4    22 1   
    13     4    23 1   
    14     5     6 1   
    15     5     7 1   
    16     5    38 1   
    17     7     8 1   
    18     7    24 1   
    19     8    13 1   
    20     8    25 1   
    21     8    26 1   
    22     9    13 1   
    23     9    27 1   
    24     9    28 1   
    25    10    11 2   
    26    10    12 1   
    27    12    29 1   
    28    12    30 1   
    29    12    31 1   
    30    13    14 1   
    31    13    32 1   
    32    14    15 1   
    33    15    33 1   
    34    15    34 1   
    35    16    17 1   
    36    16    35 1   
    37    16    39 1   
    38    17    36 1   
    39    17    37 1   
    40    17    40 1   
@<TRIPOS>SUBSTRUCTURE
     1 4L0         1 TEMP              0 ****  ****    0 ROOT
