@<TRIPOS>MOLECULE
4L1
   54    59     1     0     0
SMALL
No Charge or Current Charge


@<TRIPOS>ATOM
      1 CAN          7.1500    -0.3250     0.4070 c6         1 4L1       0.195800
      2 CAL          8.1650     0.7770     0.8590 c6         1 4L1       0.158800
      3 NBD          8.4030     1.8140    -0.1910 n3         1 4L1      -0.716600
      4 CAA          9.3950     2.8280     0.2250 c3         1 4L1       0.153100
      5 CAM          7.1010     2.4170    -0.6090 c6         1 4L1       0.158800
      6 CAO          6.0640     1.3500    -1.0920 c6         1 4L1       0.195800
      7 NBE          5.8590     0.2490    -0.0950 nh         1 4L1      -0.789400
      8 CAV          4.6700    -0.5250    -0.1260 ca         1 4L1       0.264000
      9 CAK          3.4120     0.1190    -0.0760 ca         1 4L1      -0.089000
     10 CAG          4.7180    -1.9420    -0.2020 ca         1 4L1      -0.142000
     11 CAI          3.5310    -2.7030    -0.2320 ca         1 4L1      -0.092000
     12 CBC          2.3160    -2.0140    -0.1810 ca         1 4L1      -0.104200
     13 NAS          1.0450    -2.5140    -0.1940 na         1 4L1      -0.311600
     14 CBA          2.2460    -0.6560    -0.1050 ca         1 4L1       0.098400
     15 NAQ          0.9350    -0.2190    -0.0640 nc         1 4L1      -0.585100
     16 CAX          0.2340    -1.3710    -0.1200 cd         1 4L1       0.483400
     17 CAU         -1.2450    -1.3910    -0.1020 ca         1 4L1      -0.146900
     18 CAJ         -1.9780    -0.1760    -0.0240 ca         1 4L1       0.008000
     19 CAF         -1.9580    -2.6210    -0.1630 ca         1 4L1      -0.084000
     20 CAH         -3.3670    -2.6390    -0.1460 ca         1 4L1      -0.116000
     21 CBB         -4.0370    -1.4140    -0.0680 ca         1 4L1      -0.067200
     22 NAT         -5.3810    -1.1730    -0.0370 na         1 4L1      -0.282600
     23 CAZ         -3.3810    -0.2220    -0.0090 ca         1 4L1       0.059400
     24 NAR         -4.2660     0.8410     0.0620 nc         1 4L1      -0.562100
     25 CAY         -5.4740     0.2270     0.0430 cd         1 4L1       0.349800
     26 CAW         -6.7720     0.9660     0.1010 ca         1 4L1       0.329700
     27 NAP         -7.9210     0.2280     0.0740 nb         1 4L1      -0.690000
     28 CAD         -9.1080     0.8780     0.1260 ca         1 4L1       0.341900
     29 CAB         -9.2090     2.2760     0.2060 ca         1 4L1      -0.153000
     30 CAC         -8.0370     3.0460     0.2350 ca         1 4L1      -0.076000
     31 CAE         -6.8020     2.3770     0.1810 ca         1 4L1      -0.110000
     32 HAN2         7.6180    -0.9300    -0.3830 h1         1 4L1       0.042700
     33 HAN1         6.9630    -0.9900     1.2630 h1         1 4L1       0.042700
     34 HAL2         7.7760     1.2510     1.7730 h1         1 4L1       0.038950
     35 HAL1         9.1110     0.2870     1.1330 h1         1 4L1       0.038950
     36 HAA2        10.3520     2.3540     0.4800 h1         1 4L1       0.030700
     37 HAA3         9.5790     3.5450    -0.5870 h1         1 4L1       0.030700
     38 HAA1         9.0420     3.3860     1.1030 h1         1 4L1       0.030700
     39 HAM2         6.6590     2.9740     0.2310 h1         1 4L1       0.038950
     40 HAM1         7.2600     3.1400    -1.4220 h1         1 4L1       0.038950
     41 HAO2         5.1170     1.8650    -1.3070 h1         1 4L1       0.042700
     42 HAO1         6.4180     0.9220    -2.0410 h1         1 4L1       0.042700
     43 HAK1         3.3440     1.1990    -0.0020 ha         1 4L1       0.133000
     44 HAG1         5.6710    -2.4580    -0.2510 ha         1 4L1       0.113000
     45 HAI1         3.5630    -3.7890    -0.2930 ha         1 4L1       0.114000
     46 H2           0.7410    -3.4760    -0.2440 hn         1 4L1       0.354000
     47 HAJ1        -1.4760     0.7870     0.0240 ha         1 4L1       0.157000
     48 HAF1        -1.4280    -3.5680    -0.2230 ha         1 4L1       0.104000
     49 HAH1        -3.9150    -3.5780    -0.1920 ha         1 4L1       0.122000
     50 H4          -6.1540    -1.8270    -0.0650 hn         1 4L1       0.378000
     51 HAD1       -10.0030     0.2570     0.1020 h4         1 4L1       0.022100
     52 HAB1       -10.1870     2.7490     0.2450 ha         1 4L1       0.127000
     53 HAC1        -8.0820     4.1320     0.2970 ha         1 4L1       0.126000
     54 HAE1        -5.8770     2.9470     0.2020 ha         1 4L1       0.152000
@<TRIPOS>BOND
     1     1     2 1   
     2     1     7 1   
     3     1    32 1   
     4     1    33 1   
     5     2     3 1   
     6     2    34 1   
     7     2    35 1   
     8     3     4 1   
     9     3     5 1   
    10     4    36 1   
    11     4    37 1   
    12     4    38 1   
    13     5     6 1   
    14     5    39 1   
    15     5    40 1   
    16     6     7 1   
    17     6    41 1   
    18     6    42 1   
    19     7     8 1   
    20     8     9 ar  
    21     8    10 ar  
    22     9    14 ar  
    23     9    43 1   
    24    10    11 ar  
    25    10    44 1   
    26    11    12 ar  
    27    11    45 1   
    28    12    13 1   
    29    12    14 ar  
    30    13    16 1   
    31    13    46 1   
    32    14    15 1   
    33    15    16 2   
    34    16    17 1   
    35    17    18 ar  
    36    17    19 ar  
    37    18    23 ar  
    38    18    47 1   
    39    19    20 ar  
    40    19    48 1   
    41    20    21 ar  
    42    20    49 1   
    43    21    22 1   
    44    21    23 ar  
    45    22    25 1   
    46    22    50 1   
    47    23    24 1   
    48    24    25 2   
    49    25    26 1   
    50    26    27 ar  
    51    26    31 ar  
    52    27    28 ar  
    53    28    29 ar  
    54    28    51 1   
    55    29    30 ar  
    56    29    52 1   
    57    30    31 ar  
    58    30    53 1   
    59    31    54 1   
@<TRIPOS>SUBSTRUCTURE
     1 4L1         1 TEMP              0 ****  ****    0 ROOT
