@<TRIPOS>MOLECULE
4L1
   54    59     1     0     0
SMALL
abcg2


@<TRIPOS>ATOM
      1 CAN          7.0660    -0.3610     0.2050 c6         1 4L1       0.195800
      2 CAL          8.1420     0.5920     0.6920 c6         1 4L1       0.158800
      3 NBD          8.3030     1.7050    -0.2200 n3         1 4L1      -0.716600
      4 CAA          9.3710     2.5860     0.1920 c3         1 4L1       0.153100
      5 CAM          7.0480     2.4140    -0.3650 c6         1 4L1       0.158800
      6 CAO          5.9590     1.4820    -0.8570 c6         1 4L1       0.195800
      7 NBE          5.8130     0.3470     0.0440 nh         1 4L1      -0.789400
      8 CAV          4.6380    -0.4100    -0.0820 ca         1 4L1       0.264000
      9 CAK          3.4050     0.2270     0.0440 ca         1 4L1      -0.089000
     10 CAG          4.6750    -1.8050    -0.3030 ca         1 4L1      -0.142000
     11 CAI          3.5240    -2.5740    -0.3790 ca         1 4L1      -0.092000
     12 CBC          2.3110    -1.9170    -0.2550 ca         1 4L1      -0.104200
     13 NAS          1.0040    -2.3340    -0.2680 na         1 4L1      -0.311600
     14 CBA          2.2420    -0.5300    -0.0540 ca         1 4L1       0.098400
     15 NAQ          0.9310    -0.1390     0.0520 nc         1 4L1      -0.585100
     16 CAX          0.2250    -1.2350    -0.0820 cd         1 4L1       0.483400
     17 CAU         -1.2350    -1.2860    -0.0300 ca         1 4L1      -0.146900
     18 CAJ         -1.9420    -0.0910    -0.0820 ca         1 4L1       0.008000
     19 CAF         -1.9160    -2.5160     0.0860 ca         1 4L1      -0.084000
     20 CAH         -3.2930    -2.5870     0.1460 ca         1 4L1      -0.116000
     21 CBB         -3.9870    -1.3840     0.0900 ca         1 4L1      -0.067200
     22 NAT         -5.3130    -1.0730     0.1220 na         1 4L1      -0.282600
     23 CAZ         -3.3300    -0.1440    -0.0220 ca         1 4L1       0.059400
     24 NAR         -4.2500     0.8720    -0.0560 nc         1 4L1      -0.562100
     25 CAY         -5.4110     0.2790     0.0320 cd         1 4L1       0.349800
     26 CAW         -6.7120     0.9470     0.0390 ca         1 4L1       0.329700
     27 NAP         -7.7740     0.1520     0.1340 nb         1 4L1      -0.690000
     28 CAD         -8.9750     0.7110     0.1430 ca         1 4L1       0.341900
     29 CAB         -9.1760     2.0820     0.0580 ca         1 4L1      -0.153000
     30 CAC         -8.0640     2.9050    -0.0400 ca         1 4L1      -0.076000
     31 CAE         -6.8030     2.3320    -0.0510 ca         1 4L1      -0.110000
     32 HAN2         7.3990    -0.8340    -0.7320 h1         1 4L1       0.042700
     33 HAN1         6.9440    -1.1520     0.9460 h1         1 4L1       0.042700
     34 HAL2         7.8840     0.9340     1.7100 h1         1 4L1       0.038950
     35 HAL1         9.0870     0.0490     0.7650 h1         1 4L1       0.038950
     36 HAA2        10.3100     2.0330     0.2470 h1         1 4L1       0.030700
     37 HAA3         9.4950     3.3890    -0.5360 h1         1 4L1       0.030700
     38 HAA1         9.1980     3.0480     1.1760 h1         1 4L1       0.030700
     39 HAM2         6.7250     2.8730     0.5860 h1         1 4L1       0.038950
     40 HAM1         7.1740     3.2230    -1.0880 h1         1 4L1       0.038950
     41 HAO2         5.0240     2.0380    -0.9110 h1         1 4L1       0.042700
     42 HAO1         6.2000     1.1430    -1.8760 h1         1 4L1       0.042700
     43 HAK1         3.3410     1.2900     0.2380 ha         1 4L1       0.133000
     44 HAG1         5.6240    -2.3080    -0.4250 ha         1 4L1       0.113000
     45 HAI1         3.5860    -3.6420    -0.5380 ha         1 4L1       0.114000
     46 H2           0.6910    -3.2740    -0.4450 hn         1 4L1       0.354000
     47 HAJ1        -1.4230     0.8540    -0.1720 ha         1 4L1       0.157000
     48 HAF1        -1.3600    -3.4420     0.1480 ha         1 4L1       0.104000
     49 HAH1        -3.7980    -3.5380     0.2430 ha         1 4L1       0.122000
     50 H4          -6.0940    -1.7060     0.2000 hn         1 4L1       0.378000
     51 HAD1        -9.8200     0.0370     0.2220 h4         1 4L1       0.022100
     52 HAB1       -10.1780     2.4870     0.0690 ha         1 4L1       0.127000
     53 HAC1        -8.1760     3.9790    -0.1070 ha         1 4L1       0.126000
     54 HAE1        -5.9100     2.9360    -0.1260 ha         1 4L1       0.152000
@<TRIPOS>BOND
     1     1     2 1   
     2     1     7 1   
     3     1    32 1   
     4     1    33 1   
     5     2     3 1   
     6     2    34 1   
     7     2    35 1   
     8     3     4 1   
     9     3     5 1   
    10     4    36 1   
    11     4    37 1   
    12     4    38 1   
    13     5     6 1   
    14     5    39 1   
    15     5    40 1   
    16     6     7 1   
    17     6    41 1   
    18     6    42 1   
    19     7     8 1   
    20     8     9 ar  
    21     8    10 ar  
    22     9    14 ar  
    23     9    43 1   
    24    10    11 ar  
    25    10    44 1   
    26    11    12 ar  
    27    11    45 1   
    28    12    13 1   
    29    12    14 ar  
    30    13    16 1   
    31    13    46 1   
    32    14    15 1   
    33    15    16 2   
    34    16    17 1   
    35    17    18 ar  
    36    17    19 ar  
    37    18    23 ar  
    38    18    47 1   
    39    19    20 ar  
    40    19    48 1   
    41    20    21 ar  
    42    20    49 1   
    43    21    22 1   
    44    21    23 ar  
    45    22    25 1   
    46    22    50 1   
    47    23    24 1   
    48    24    25 2   
    49    25    26 1   
    50    26    27 ar  
    51    26    31 ar  
    52    27    28 ar  
    53    28    29 ar  
    54    28    51 1   
    55    29    30 ar  
    56    29    52 1   
    57    30    31 ar  
    58    30    53 1   
    59    31    54 1   
@<TRIPOS>SUBSTRUCTURE
     1 4L1         1 TEMP              0 ****  ****    0 ROOT
