@<TRIPOS>MOLECULE
4L2
   38    40     1     0     0
SMALL
bcc


@<TRIPOS>ATOM
      1 OAC          2.4630    -0.2620     2.1220 o          1 4L2      -0.625500
      2 CAM          3.0310    -0.0670     1.0560 c          1 4L2       0.712500
      3 CAK          4.5130     0.2130     1.0000 c6         1 4L2      -0.157400
      4 CAI          5.1530     0.0010    -0.3630 c6         1 4L2      -0.073400
      5 CAJ          4.3060     0.6860    -1.4200 c6         1 4L2      -0.092400
      6 CAL          2.9230     0.0680    -1.4500 c6         1 4L2       0.117000
      7 NAS          2.3430    -0.0570    -0.1120 n          1 4L2      -0.417000
      8 CAO          0.9610    -0.3870    -0.0720 ca         1 4L2       0.093600
      9 CAH          0.0260     0.6270    -0.0350 ca         1 4L2      -0.175000
     10 CAR         -1.3430     0.3290    -0.0340 ca         1 4L2       0.108600
     11 NAT         -2.2810     1.3420     0.0060 n          1 4L2      -0.346000
     12 CAB         -1.8250     2.7220     0.0530 c3         1 4L2       0.068300
     13 CAP         -3.6400     1.0960     0.0020 c          1 4L2       0.708700
     14 OAD         -4.4590     2.0080     0.0300 o          1 4L2      -0.629500
     15 CAG         -4.0370    -0.2960    -0.0350 cc         1 4L2      -0.249200
     16 CAN         -3.1620    -1.3200    -0.0680 cd         1 4L2       0.024600
     17 CAA         -3.6310    -2.7380    -0.1010 c3         1 4L2      -0.061900
     18 CAQ         -1.7510    -1.0190    -0.0710 ca         1 4L2      -0.126800
     19 CAF         -0.7770    -2.0230    -0.1130 ca         1 4L2      -0.069000
     20 CAE          0.5670    -1.7220    -0.1140 ca         1 4L2      -0.160000
     21 H1           4.6470     1.2540     1.3130 hc         1 4L2       0.073700
     22 H2           4.9880    -0.3980     1.7690 hc         1 4L2       0.073700
     23 H3           6.1700     0.3950    -0.3570 hc         1 4L2       0.050700
     24 H4           5.2290    -1.0670    -0.5840 hc         1 4L2       0.050700
     25 H5           4.2350     1.7560    -1.2050 hc         1 4L2       0.054200
     26 H6           4.7470     0.5860    -2.4130 hc         1 4L2       0.054200
     27 H7           2.2470     0.6760    -2.0530 h1         1 4L2       0.044200
     28 H8           2.9670    -0.9220    -1.9150 h1         1 4L2       0.044200
     29 H9           0.3800     1.6470    -0.0090 ha         1 4L2       0.148000
     30 H10         -1.2490     2.9690    -0.8390 h1         1 4L2       0.055700
     31 H11         -2.6850     3.3780     0.1020 h1         1 4L2       0.055700
     32 H12         -1.2050     2.8920     0.9320 h1         1 4L2       0.055700
     33 H13         -5.1040    -0.4780    -0.0320 ha         1 4L2       0.157000
     34 H14         -4.7180    -2.7900    -0.0950 hc         1 4L2       0.051367
     35 H15         -3.2710    -3.2520    -0.9940 hc         1 4L2       0.051367
     36 H16         -3.2600    -3.2940     0.7610 hc         1 4L2       0.051367
     37 H17         -1.0830    -3.0600    -0.1450 ha         1 4L2       0.136000
     38 H18          1.3090    -2.5080    -0.1470 ha         1 4L2       0.143000
@<TRIPOS>BOND
     1     1     2 2   
     2     2     3 1   
     3     2     7 1   
     4     3     4 1   
     5     3    21 1   
     6     3    22 1   
     7     4     5 1   
     8     4    23 1   
     9     4    24 1   
    10     5     6 1   
    11     5    25 1   
    12     5    26 1   
    13     6     7 1   
    14     6    27 1   
    15     6    28 1   
    16     7     8 1   
    17     8     9 ar  
    18     8    20 ar  
    19     9    10 ar  
    20     9    29 1   
    21    10    11 1   
    22    10    18 ar  
    23    11    12 1   
    24    11    13 1   
    25    12    30 1   
    26    12    31 1   
    27    12    32 1   
    28    13    14 2   
    29    13    15 1   
    30    15    16 2   
    31    15    33 1   
    32    16    17 1   
    33    16    18 1   
    34    17    34 1   
    35    17    35 1   
    36    17    36 1   
    37    18    19 ar  
    38    19    20 ar  
    39    19    37 1   
    40    20    38 1   
@<TRIPOS>SUBSTRUCTURE
     1 4L2         1 TEMP              0 ****  ****    0 ROOT
