@<TRIPOS>MOLECULE
4L2
   38    40     1     0     0
SMALL
No Charge or Current Charge


@<TRIPOS>ATOM
      1 OAC          2.7720    -1.3550     1.8420 o          1 4L2      -0.550000
      2 CAM          3.2200    -0.6860     0.9180 c          1 4L2       0.570000
      3 CAK          4.7360    -0.4180     0.8760 c6         1 4L2      -0.157400
      4 CAI          5.2650     0.0910    -0.4770 c6         1 4L2      -0.073400
      5 CAJ          4.3620     1.2340    -0.9550 c6         1 4L2      -0.092400
      6 CAL          2.9190     0.7360    -1.1750 c6         1 4L2       0.117000
      7 NAS          2.3830    -0.1790    -0.1210 n          1 4L2      -0.257400
      8 CAO          0.9760    -0.4970    -0.2120 ca         1 4L2       0.001000
      9 CAH          0.0180     0.5370    -0.2680 ca         1 4L2      -0.157000
     10 CAR         -1.3720     0.2660    -0.2370 ca         1 4L2       0.108600
     11 NAT         -2.3460     1.3320    -0.3110 n          1 4L2      -0.279000
     12 CAB         -1.8950     2.7090    -0.6490 c3         1 4L2       0.068300
     13 CAP         -3.7350     1.1010    -0.1620 c          1 4L2       0.566200
     14 OAD         -4.5690     1.9950    -0.2060 o          1 4L2      -0.554000
     15 CAG         -4.1290    -0.2970     0.0410 cc         1 4L2      -0.299200
     16 CAN         -3.2450    -1.3480     0.1080 cd         1 4L2       0.024600
     17 CAA         -3.7650    -2.7530     0.3120 c3         1 4L2      -0.061900
     18 CAQ         -1.8060    -1.0600    -0.0170 ca         1 4L2      -0.126800
     19 CAF         -0.8490    -2.0870     0.1170 ca         1 4L2      -0.051000
     20 CAE          0.5210    -1.8030     0.0400 ca         1 4L2      -0.142000
     21 H1           4.9220     0.3530     1.6360 hc         1 4L2       0.073700
     22 H2           5.2710    -1.3080     1.2300 hc         1 4L2       0.073700
     23 H3           6.3030     0.4370    -0.3740 hc         1 4L2       0.050700
     24 H4           5.2690    -0.7240    -1.2150 hc         1 4L2       0.050700
     25 H5           4.3630     2.0440    -0.2120 hc         1 4L2       0.054200
     26 H6           4.7520     1.6660    -1.8870 hc         1 4L2       0.054200
     27 H7           2.2680     1.6110    -1.2940 h1         1 4L2       0.044200
     28 H8           2.8860     0.1890    -2.1280 h1         1 4L2       0.044200
     29 H9           0.3680     1.5610    -0.3340 ha         1 4L2       0.130000
     30 H10         -1.2350     2.6770    -1.5250 h1         1 4L2       0.055700
     31 H11         -2.7350     3.3710    -0.8900 h1         1 4L2       0.055700
     32 H12         -1.3480     3.1350     0.2020 h1         1 4L2       0.055700
     33 H13         -5.1980    -0.4480     0.1370 ha         1 4L2       0.207000
     34 H14         -4.8610    -2.7840     0.3350 hc         1 4L2       0.051367
     35 H15         -3.4380    -3.4150    -0.4990 hc         1 4L2       0.051367
     36 H16         -3.4060    -3.1710     1.2600 hc         1 4L2       0.051367
     37 H17         -1.1510    -3.1140     0.3010 ha         1 4L2       0.118000
     38 H18          1.2340    -2.6160     0.1600 ha         1 4L2       0.125000
@<TRIPOS>BOND
     1     1     2 2   
     2     2     3 1   
     3     2     7 1   
     4     3     4 1   
     5     3    21 1   
     6     3    22 1   
     7     4     5 1   
     8     4    23 1   
     9     4    24 1   
    10     5     6 1   
    11     5    25 1   
    12     5    26 1   
    13     6     7 1   
    14     6    27 1   
    15     6    28 1   
    16     7     8 1   
    17     8     9 ar  
    18     8    20 ar  
    19     9    10 ar  
    20     9    29 1   
    21    10    11 1   
    22    10    18 ar  
    23    11    12 1   
    24    11    13 1   
    25    12    30 1   
    26    12    31 1   
    27    12    32 1   
    28    13    14 2   
    29    13    15 1   
    30    15    16 2   
    31    15    33 1   
    32    16    17 1   
    33    16    18 1   
    34    17    34 1   
    35    17    35 1   
    36    17    36 1   
    37    18    19 ar  
    38    19    20 ar  
    39    19    37 1   
    40    20    38 1   
@<TRIPOS>SUBSTRUCTURE
     1 4L2         1 TEMP              0 ****  ****    0 ROOT
