@<TRIPOS>MOLECULE
4L3
   65    68     1     0     0
SMALL
abcg2


@<TRIPOS>ATOM
      1 CAK         -5.3720     1.3570     2.8810 c3         1 4L3      -0.061900
      2 CAJ         -5.0460     1.0040     1.4660 cc         1 4L3       0.024600
      3 CAI         -5.8650     1.3480     0.4520 cd         1 4L3      -0.299200
      4 CAH         -5.5950     1.0340    -0.9350 c          1 4L3       0.566200
      5 OAL         -6.3550     1.3640    -1.8390 o          1 4L3      -0.556000
      6 NAG         -4.4280     0.3410    -1.1880 n          1 4L3      -0.278000
      7 CAM         -4.0990     0.0140    -2.5670 c3         1 4L3       0.067300
      8 CAD         -3.5590    -0.0430    -0.1850 ca         1 4L3       0.112600
      9 CAC         -2.3920    -0.7530    -0.4870 ca         1 4L3      -0.143000
     10 CAE         -3.8370     0.2800     1.1580 ca         1 4L3      -0.128800
     11 CAF         -2.9330    -0.1160     2.1500 ca         1 4L3      -0.050000
     12 CAA         -1.7870    -0.8150     1.8440 ca         1 4L3      -0.153000
     13 CAB         -1.5230    -1.1320     0.5140 ca         1 4L3       0.006000
     14 NAN         -0.3300    -1.8360     0.1820 n          1 4L3      -0.248400
     15 CAO         -0.4400    -3.1700    -0.0790 c          1 4L3       0.569000
     16 OAT         -1.5310    -3.7100    -0.1550 o          1 4L3      -0.539000
     17 CAP          0.8350    -3.9430    -0.2990 c6         1 4L3      -0.158400
     18 CAQ          2.0480    -3.3430     0.3850 c6         1 4L3      -0.085400
     19 CAR          2.1580    -1.8880    -0.0260 c6         1 4L3       0.115700
     20 NBA          3.3320    -1.2530     0.5140 ns         1 4L3      -0.501900
     21 CBB          4.1160    -0.4150    -0.2080 c          1 4L3       0.655100
     22 OBH          4.0740    -0.3030    -1.4140 o          1 4L3      -0.535000
     23 OBC          4.9490     0.2280     0.6070 os         1 4L3      -0.481100
     24 CBD          5.9110     1.2070     0.1350 c3         1 4L3       0.225000
     25 CBF          5.2100     2.3830    -0.5350 c3         1 4L3      -0.108767
     26 CBG          6.5800     1.6750     1.4220 c3         1 4L3      -0.108767
     27 CBE          6.9440     0.5620    -0.7810 c3         1 4L3      -0.108767
     28 CAS          0.9170    -1.1090     0.4430 c6         1 4L3       0.151000
     29 CAU          0.8950     0.2620    -0.1880 ca         1 4L3      -0.106300
     30 CAV          1.2480     1.3760     0.5610 ca         1 4L3      -0.085500
     31 CAW          1.3000     2.6350    -0.0240 ca         1 4L3      -0.109500
     32 CAX          0.9860     2.7890    -1.3660 ca         1 4L3      -0.097000
     33 CAY          0.6250     1.6780    -2.1200 ca         1 4L3      -0.109500
     34 CAZ          0.5870     0.4230    -1.5350 ca         1 4L3      -0.085500
     35 H1          -6.3240     1.8800     2.9420 hc         1 4L3       0.050700
     36 H2          -5.4330     0.4650     3.5060 hc         1 4L3       0.050700
     37 H3          -4.6040     2.0000     3.3140 hc         1 4L3       0.050700
     38 H4          -6.7820     1.8910     0.6430 ha         1 4L3       0.207000
     39 H5          -4.8810     0.3880    -3.2160 h1         1 4L3       0.056367
     40 H6          -3.1560     0.4760    -2.8570 h1         1 4L3       0.056367
     41 H7          -4.0210    -1.0640    -2.6990 h1         1 4L3       0.056367
     42 H8          -2.1430    -1.0140    -1.5040 ha         1 4L3       0.131000
     43 H9          -3.1420     0.1230     3.1830 ha         1 4L3       0.116000
     44 H10         -1.1070    -1.1190     2.6290 ha         1 4L3       0.119000
     45 H11          0.6580    -4.9680     0.0270 hc         1 4L3       0.079200
     46 H12          1.0030    -3.9880    -1.3810 hc         1 4L3       0.079200
     47 H13          1.9560    -3.4260     1.4720 hc         1 4L3       0.059200
     48 H14          2.9500    -3.8820     0.0930 hc         1 4L3       0.059200
     49 H15          2.2290    -1.8370    -1.1140 h1         1 4L3       0.098700
     50 H16          3.4250    -1.2320     1.5190 hn         1 4L3       0.318500
     51 H17          4.4310     2.7920     0.1100 hc         1 4L3       0.049811
     52 H18          5.9390     3.1730    -0.7180 hc         1 4L3       0.049811
     53 H19          4.7570     2.1120    -1.4860 hc         1 4L3       0.049811
     54 H20          7.0660     0.8490     1.9430 hc         1 4L3       0.049811
     55 H21          7.3420     2.4190     1.1910 hc         1 4L3       0.049811
     56 H22          5.8590     2.1350     2.0990 hc         1 4L3       0.049811
     57 H23          6.5310     0.2970    -1.7520 hc         1 4L3       0.049811
     58 H24          7.7640     1.2620    -0.9450 hc         1 4L3       0.049811
     59 H25          7.3650    -0.3350    -0.3230 hc         1 4L3       0.049811
     60 H26          1.0160    -0.9840     1.5280 h1         1 4L3       0.045700
     61 H27          1.4840     1.2630     1.6130 ha         1 4L3       0.112000
     62 H28          1.5800     3.4950     0.5700 ha         1 4L3       0.113500
     63 H29          1.0190     3.7690    -1.8240 ha         1 4L3       0.114000
     64 H30          0.3760     1.7920    -3.1680 ha         1 4L3       0.113500
     65 H31          0.3080    -0.4370    -2.1350 ha         1 4L3       0.112000
@<TRIPOS>BOND
     1     1     2 1   
     2     1    35 1   
     3     1    36 1   
     4     1    37 1   
     5     2     3 2   
     6     2    10 1   
     7     3     4 1   
     8     3    38 1   
     9     4     5 2   
    10     4     6 1   
    11     6     7 1   
    12     6     8 1   
    13     7    39 1   
    14     7    40 1   
    15     7    41 1   
    16     8     9 ar  
    17     8    10 ar  
    18     9    13 ar  
    19     9    42 1   
    20    10    11 ar  
    21    11    12 ar  
    22    11    43 1   
    23    12    13 ar  
    24    12    44 1   
    25    13    14 1   
    26    14    15 1   
    27    14    28 1   
    28    15    16 2   
    29    15    17 1   
    30    17    18 1   
    31    17    45 1   
    32    17    46 1   
    33    18    19 1   
    34    18    47 1   
    35    18    48 1   
    36    19    20 1   
    37    19    28 1   
    38    19    49 1   
    39    20    21 1   
    40    20    50 1   
    41    21    22 2   
    42    21    23 1   
    43    23    24 1   
    44    24    25 1   
    45    24    26 1   
    46    24    27 1   
    47    25    51 1   
    48    25    52 1   
    49    25    53 1   
    50    26    54 1   
    51    26    55 1   
    52    26    56 1   
    53    27    57 1   
    54    27    58 1   
    55    27    59 1   
    56    28    29 1   
    57    28    60 1   
    58    29    30 ar  
    59    29    34 ar  
    60    30    31 ar  
    61    30    61 1   
    62    31    32 ar  
    63    31    62 1   
    64    32    33 ar  
    65    32    63 1   
    66    33    34 ar  
    67    33    64 1   
    68    34    65 1   
@<TRIPOS>SUBSTRUCTURE
     1 4L3         1 TEMP              0 ****  ****    0 ROOT
