@<TRIPOS>MOLECULE
4L3
   65    68     1     0     0
SMALL
No Charge or Current Charge


@<TRIPOS>ATOM
      1 CAK         -5.3300     2.0720     2.4920 c3         1 4L3      -0.061900
      2 CAJ         -5.1940     1.2030     1.2650 cc         1 4L3       0.024600
      3 CAI         -6.2610     0.9850     0.4200 cd         1 4L3      -0.299200
      4 CAH         -6.2360     0.1870    -0.8150 c          1 4L3       0.566200
      5 OAL         -7.2400     0.0530    -1.5030 o          1 4L3      -0.556000
      6 NAG         -4.9910    -0.3840    -1.1450 n          1 4L3      -0.278000
      7 CAM         -4.8510    -1.0690    -2.4570 c3         1 4L3       0.067300
      8 CAD         -3.8400    -0.2410    -0.2900 ca         1 4L3       0.112600
      9 CAC         -2.6460    -0.9560    -0.5510 ca         1 4L3      -0.143000
     10 CAE         -3.9460     0.5150     0.9000 ca         1 4L3      -0.128800
     11 CAF         -2.8350     0.5730     1.7700 ca         1 4L3      -0.050000
     12 CAA         -1.6450    -0.1030     1.4690 ca         1 4L3      -0.153000
     13 CAB         -1.5120    -0.8270     0.2720 ca         1 4L3       0.006000
     14 NAN         -0.3520    -1.6640     0.0580 n          1 4L3      -0.248400
     15 CAO         -0.4750    -3.0630    -0.1740 c          1 4L3       0.569000
     16 OAT         -1.5490    -3.6450    -0.0780 o          1 4L3      -0.539000
     17 CAP          0.7770    -3.8750    -0.5380 c6         1 4L3      -0.158400
     18 CAQ          2.0690    -3.3310     0.0980 c6         1 4L3      -0.085400
     19 CAR          2.2060    -1.8380    -0.2360 c6         1 4L3       0.115700
     20 NBA          3.4790    -1.3190     0.2900 ns         1 4L3      -0.501900
     21 CBB          4.2470    -0.3570    -0.3010 c          1 4L3       0.655100
     22 OBH          4.0540     0.0960    -1.4170 o          1 4L3      -0.535000
     23 OBC          5.2330    -0.0060     0.5790 os         1 4L3      -0.481100
     24 CBD          6.1610     1.0700     0.3110 c3         1 4L3       0.225000
     25 CBF          5.3790     2.4020     0.1630 c3         1 4L3      -0.108767
     26 CBG          7.0570     1.1230     1.5680 c3         1 4L3      -0.108767
     27 CBE          7.0190     0.7270    -0.9340 c3         1 4L3      -0.108767
     28 CAS          0.9890    -1.0480     0.3370 c6         1 4L3       0.151000
     29 CAU          1.0570     0.4270    -0.0990 ca         1 4L3      -0.106300
     30 CAV          1.4600     1.4200     0.8180 ca         1 4L3      -0.085500
     31 CAW          1.5380     2.7650     0.4190 ca         1 4L3      -0.109500
     32 CAX          1.2140     3.1280    -0.8990 ca         1 4L3      -0.097000
     33 CAY          0.8120     2.1450    -1.8180 ca         1 4L3      -0.109500
     34 CAZ          0.7350     0.7990    -1.4210 ca         1 4L3      -0.085500
     35 H1          -6.3140     2.5520     2.5390 hc         1 4L3       0.050700
     36 H2          -5.2080     1.4790     3.4070 hc         1 4L3       0.050700
     37 H3          -4.5760     2.8680     2.4940 hc         1 4L3       0.050700
     38 H4          -7.2290     1.4270     0.6210 ha         1 4L3       0.207000
     39 H5          -5.7220    -0.9010    -3.1030 h1         1 4L3       0.056367
     40 H6          -3.9680    -0.6850    -2.9840 h1         1 4L3       0.056367
     41 H7          -4.7370    -2.1490    -2.2980 h1         1 4L3       0.056367
     42 H8          -2.5680    -1.5960    -1.4230 ha         1 4L3       0.131000
     43 H9          -2.8860     1.1240     2.7050 ha         1 4L3       0.116000
     44 H10         -0.8280    -0.0650     2.1850 ha         1 4L3       0.119000
     45 H11          0.6100    -4.9400    -0.3290 hc         1 4L3       0.079200
     46 H12          0.8890    -3.7740    -1.6260 hc         1 4L3       0.079200
     47 H13          2.0480    -3.4810     1.1870 hc         1 4L3       0.059200
     48 H14          2.9360    -3.8880    -0.2850 hc         1 4L3       0.059200
     49 H15          2.2120    -1.7260    -1.3310 h1         1 4L3       0.098700
     50 H16          3.7760    -1.5980     1.2150 hn         1 4L3       0.318500
     51 H17          4.6710     2.5300     0.9910 hc         1 4L3       0.049811
     52 H18          6.0690     3.2530     0.1740 hc         1 4L3       0.049811
     53 H19          4.8200     2.4480    -0.7780 hc         1 4L3       0.049811
     54 H20          7.5840     0.1720     1.7110 hc         1 4L3       0.049811
     55 H21          7.8070     1.9170     1.4810 hc         1 4L3       0.049811
     56 H22          6.4570     1.3190     2.4660 hc         1 4L3       0.049811
     57 H23          6.4490     0.8240    -1.8650 hc         1 4L3       0.049811
     58 H24          7.8750     1.4080    -1.0080 hc         1 4L3       0.049811
     59 H25          7.4060    -0.2970    -0.8700 hc         1 4L3       0.049811
     60 H26          1.1030    -1.0700     1.4300 h1         1 4L3       0.045700
     61 H27          1.7190     1.1490     1.8390 ha         1 4L3       0.112000
     62 H28          1.8520     3.5250     1.1310 ha         1 4L3       0.113500
     63 H29          1.2760     4.1700    -1.2070 ha         1 4L3       0.114000
     64 H30          0.5610     2.4250    -2.8390 ha         1 4L3       0.113500
     65 H31          0.4250     0.0450    -2.1410 ha         1 4L3       0.112000
@<TRIPOS>BOND
     1     1     2 1   
     2     1    35 1   
     3     1    36 1   
     4     1    37 1   
     5     2     3 2   
     6     2    10 1   
     7     3     4 1   
     8     3    38 1   
     9     4     5 2   
    10     4     6 1   
    11     6     7 1   
    12     6     8 1   
    13     7    39 1   
    14     7    40 1   
    15     7    41 1   
    16     8     9 ar  
    17     8    10 ar  
    18     9    13 ar  
    19     9    42 1   
    20    10    11 ar  
    21    11    12 ar  
    22    11    43 1   
    23    12    13 ar  
    24    12    44 1   
    25    13    14 1   
    26    14    15 1   
    27    14    28 1   
    28    15    16 2   
    29    15    17 1   
    30    17    18 1   
    31    17    45 1   
    32    17    46 1   
    33    18    19 1   
    34    18    47 1   
    35    18    48 1   
    36    19    20 1   
    37    19    28 1   
    38    19    49 1   
    39    20    21 1   
    40    20    50 1   
    41    21    22 2   
    42    21    23 1   
    43    23    24 1   
    44    24    25 1   
    45    24    26 1   
    46    24    27 1   
    47    25    51 1   
    48    25    52 1   
    49    25    53 1   
    50    26    54 1   
    51    26    55 1   
    52    26    56 1   
    53    27    57 1   
    54    27    58 1   
    55    27    59 1   
    56    28    29 1   
    57    28    60 1   
    58    29    30 ar  
    59    29    34 ar  
    60    30    31 ar  
    61    30    61 1   
    62    31    32 ar  
    63    31    62 1   
    64    32    33 ar  
    65    32    63 1   
    66    33    34 ar  
    67    33    64 1   
    68    34    65 1   
@<TRIPOS>SUBSTRUCTURE
     1 4L3         1 TEMP              0 ****  ****    0 ROOT
