@<TRIPOS>MOLECULE
4L4
   65    68     1     0     0
SMALL
abcg2


@<TRIPOS>ATOM
      1 CAA          9.0460    -2.3710    -0.6880 c3         1 4L4      -0.201100
      2 CAU          7.7220    -1.7340    -0.9890 c          1 4L4       0.563100
      3 OAC          6.7140    -2.3640    -1.1960 o          1 4L4      -0.486100
      4 CBG          7.7370    -0.2160    -1.0350 c5         1 4L4       0.054300
      5 OAT          6.5190     0.2950    -1.5370 os         1 4L4      -0.428000
      6 CBB          7.9490     0.4040     0.3620 c5         1 4L4       0.145300
      7 OAG          9.2910     0.7610     0.5290 oh         1 4L4      -0.712000
      8 CBA          6.9690     1.5750     0.3230 c5         1 4L4       0.104300
      9 OAF          6.5710     1.9850     1.6000 oh         1 4L4      -0.701000
     10 CBF          5.8530     0.9940    -0.5380 c5         1 4L4       0.352300
     11 OAS          5.0970     0.1320     0.2850 os         1 4L4      -0.376100
     12 CAZ          3.7790    -0.0220    -0.0270 ca         1 4L4       0.009100
     13 CAY          2.8610     0.7000     0.7420 ca         1 4L4       0.128100
     14 CAN          1.5040     0.5730     0.4790 ca         1 4L4      -0.136000
     15 OAE          3.2660     1.5260     1.7220 oh         1 4L4      -0.540100
     16 CAM          3.3430    -0.8450    -1.0510 ca         1 4L4      -0.075000
     17 CAL          1.9870    -0.9550    -1.3170 ca         1 4L4      -0.124000
     18 CAX          1.0510    -0.2620    -0.5450 ca         1 4L4      -0.034800
     19 CAK         -0.3670    -0.4020    -0.8820 ce         1 4L4      -0.094200
     20 CAV         -1.4270    -0.4090    -0.0620 cf         1 4L4      -0.182400
     21 CAB         -1.3600    -0.3660     1.4360 c3         1 4L4      -0.059900
     22 CAW         -2.7700    -0.4960    -0.7290 c          1 4L4       0.613300
     23 OAD         -2.9000    -0.8150    -1.9040 o          1 4L4      -0.596100
     24 NAP         -3.8170    -0.1630     0.0530 ns         1 4L4      -0.500900
     25 CBH         -5.1910    -0.1830    -0.3780 c6         1 4L4       0.079700
     26 CBE         -6.0240    -1.1110     0.4980 c6         1 4L4       0.145300
     27 OAJ         -5.4370    -2.3870     0.4800 oh         1 4L4      -0.703000
     28 CBJ         -7.4750    -1.1610     0.0050 c5         1 4L4       0.099300
     29 OAR         -8.3190    -1.6670     1.0250 os         1 4L4      -0.481000
     30 CAO         -8.9260    -0.5610     1.6690 c5         1 4L4       0.359600
     31 OAQ         -8.4380     0.5980     1.0560 os         1 4L4      -0.447000
     32 CBI         -8.0920     0.2050    -0.2590 c5         1 4L4       0.142300
     33 CBD         -7.1850     1.2080    -0.9380 c6         1 4L4       0.194300
     34 OAI         -7.8110     2.4620    -0.8930 oh         1 4L4      -0.699000
     35 CBC         -5.7840     1.2310    -0.3400 c6         1 4L4       0.120300
     36 OAH         -5.0310     2.1270    -1.1170 oh         1 4L4      -0.657000
     37 H1           9.7040    -2.2470    -1.5520 hc         1 4L4       0.065367
     38 H2           9.5480    -1.8890     0.1520 hc         1 4L4       0.065367
     39 H3           8.9340    -3.4340    -0.4840 hc         1 4L4       0.065367
     40 H4           8.5560     0.1050    -1.6900 h1         1 4L4       0.095700
     41 H5           7.6340    -0.2960     1.1490 h1         1 4L4       0.074700
     42 H6           9.4560     0.9030     1.4660 ho         1 4L4       0.521000
     43 H7           7.4350     2.3930    -0.2380 h1         1 4L4       0.064700
     44 H8           6.4340     2.9370     1.5910 ho         1 4L4       0.515000
     45 H9           5.2050     1.7360    -1.0120 h2         1 4L4       0.088700
     46 H10          0.8080     1.1690     1.0550 ha         1 4L4       0.129000
     47 H11          4.2300     1.4900     1.8080 ho         1 4L4       0.487000
     48 H12          4.0680    -1.4020    -1.6290 ha         1 4L4       0.148000
     49 H13          1.6520    -1.5890    -2.1280 ha         1 4L4       0.125000
     50 H14         -0.5640    -0.5320    -1.9410 ha         1 4L4       0.205000
     51 H15         -1.6030     0.6200     1.8410 hc         1 4L4       0.047033
     52 H16         -2.0550    -1.0810     1.8810 hc         1 4L4       0.047033
     53 H17         -0.3670    -0.6250     1.7970 hc         1 4L4       0.047033
     54 H18         -3.6500     0.0840     1.0150 hn         1 4L4       0.311500
     55 H19         -5.2070    -0.5400    -1.4110 h1         1 4L4       0.108700
     56 H20         -6.0190    -0.7010     1.5200 h1         1 4L4       0.038700
     57 H21         -5.8760    -2.9330     1.1390 ho         1 4L4       0.515000
     58 H22         -7.5370    -1.8160    -0.8690 h1         1 4L4       0.099700
     59 H23        -10.0150    -0.6470     1.5590 h2         1 4L4       0.054200
     60 H24         -8.6680    -0.5290     2.7310 h2         1 4L4       0.054200
     61 H25         -8.9980     0.0850    -0.8710 h1         1 4L4       0.071700
     62 H26         -7.0790     0.8540    -1.9770 h1         1 4L4       0.050700
     63 H27         -7.2810     3.0780    -1.4090 ho         1 4L4       0.523000
     64 H28         -5.8400     1.5700     0.7050 h1         1 4L4       0.052700
     65 H29         -4.2220     2.3460    -0.6450 ho         1 4L4       0.457000
@<TRIPOS>BOND
     1     1     2 1   
     2     1    37 1   
     3     1    38 1   
     4     1    39 1   
     5     2     3 2   
     6     2     4 1   
     7     4     5 1   
     8     4     6 1   
     9     4    40 1   
    10     5    10 1   
    11     6     7 1   
    12     6     8 1   
    13     6    41 1   
    14     7    42 1   
    15     8     9 1   
    16     8    10 1   
    17     8    43 1   
    18     9    44 1   
    19    10    11 1   
    20    10    45 1   
    21    11    12 1   
    22    12    13 ar  
    23    12    16 ar  
    24    13    14 ar  
    25    13    15 1   
    26    14    18 ar  
    27    14    46 1   
    28    15    47 1   
    29    16    17 ar  
    30    16    48 1   
    31    17    18 ar  
    32    17    49 1   
    33    18    19 1   
    34    19    20 2   
    35    19    50 1   
    36    20    21 1   
    37    20    22 1   
    38    21    51 1   
    39    21    52 1   
    40    21    53 1   
    41    22    23 2   
    42    22    24 1   
    43    24    25 1   
    44    24    54 1   
    45    25    26 1   
    46    25    35 1   
    47    25    55 1   
    48    26    27 1   
    49    26    28 1   
    50    26    56 1   
    51    27    57 1   
    52    28    29 1   
    53    28    32 1   
    54    28    58 1   
    55    29    30 1   
    56    30    31 1   
    57    30    59 1   
    58    30    60 1   
    59    31    32 1   
    60    32    33 1   
    61    32    61 1   
    62    33    34 1   
    63    33    35 1   
    64    33    62 1   
    65    34    63 1   
    66    35    36 1   
    67    35    64 1   
    68    36    65 1   
@<TRIPOS>SUBSTRUCTURE
     1 4L4         1 TEMP              0 ****  ****    0 ROOT
