@<TRIPOS>MOLECULE
4L4
   65    68     1     0     0
SMALL
No Charge or Current Charge


@<TRIPOS>ATOM
      1 CAA          6.9770    -2.9790     1.1240 c3         1 4L4      -0.201100
      2 CAU          6.2160    -2.0280     0.1950 c          1 4L4       0.563100
      3 OAC          4.9930    -2.1000     0.1370 o          1 4L4      -0.486100
      4 CBG          7.0830    -1.0490    -0.6570 c5         1 4L4       0.054300
      5 OAT          6.2700    -0.2190    -1.5490 os         1 4L4      -0.428000
      6 CBB          7.8580    -0.0570     0.2820 c5         1 4L4       0.145300
      7 OAG          9.2230    -0.4270     0.5140 oh         1 4L4      -0.712000
      8 CBA          7.7460     1.2700    -0.5270 c5         1 4L4       0.104300
      9 OAF          8.0550     2.4450     0.2560 oh         1 4L4      -0.701000
     10 CBF          6.2760     1.1380    -1.0490 c5         1 4L4       0.352300
     11 OAS          5.3670     1.2270     0.0880 os         1 4L4      -0.376100
     12 CAZ          4.0140     1.1810    -0.2590 ca         1 4L4       0.009100
     13 CAY          3.0910     1.2830     0.8030 ca         1 4L4       0.128100
     14 CAN          1.7090     1.2470     0.5690 ca         1 4L4      -0.136000
     15 OAE          3.5580     1.4300     2.0750 oh         1 4L4      -0.540100
     16 CAM          3.5100     1.0490    -1.5820 ca         1 4L4      -0.075000
     17 CAL          2.1220     1.0140    -1.8090 ca         1 4L4      -0.124000
     18 CAX          1.2140     1.0990    -0.7390 ca         1 4L4      -0.034800
     19 CAK         -0.2500     1.0770    -1.0120 ce         1 4L4      -0.094200
     20 CAV         -1.2500     0.3840    -0.3790 cf         1 4L4      -0.182400
     21 CAB         -0.9620    -0.6020     0.7560 c3         1 4L4      -0.059900
     22 CAW         -2.6750     0.5340    -0.8460 c          1 4L4       0.613300
     23 OAD         -2.9920     1.2480    -1.7860 o          1 4L4      -0.596100
     24 NAP         -3.6360    -0.1530    -0.1430 ns         1 4L4      -0.500900
     25 CBH         -5.0720    -0.2650    -0.4910 c6         1 4L4       0.079700
     26 CBE         -5.7060    -1.4630     0.2860 c6         1 4L4       0.145300
     27 OAJ         -4.9780    -2.6790     0.0440 oh         1 4L4      -0.703000
     28 CBJ         -7.2190    -1.6640    -0.0540 c5         1 4L4       0.099300
     29 OAR         -7.8040    -2.4850     0.9920 os         1 4L4      -0.481000
     30 CAO         -8.5240    -1.6060     1.8980 c5         1 4L4       0.359600
     31 OAQ         -8.1680    -0.2710     1.4880 os         1 4L4      -0.447000
     32 CBI         -8.0430    -0.3560     0.0570 c5         1 4L4       0.142300
     33 CBD         -7.3600     0.8830    -0.5980 c6         1 4L4       0.194300
     34 OAI         -8.0780     2.1040    -0.3490 oh         1 4L4      -0.699000
     35 CBC         -5.8770     1.0360    -0.1490 c6         1 4L4       0.120300
     36 OAH         -5.3100     2.1960    -0.7900 oh         1 4L4      -0.657000
     37 H1           7.8300    -3.4080     0.5860 hc         1 4L4       0.065367
     38 H2           7.4650    -2.3920     1.9090 hc         1 4L4       0.065367
     39 H3           6.3310    -3.7490     1.5610 hc         1 4L4       0.065367
     40 H4           7.7730    -1.6480    -1.2640 h1         1 4L4       0.095700
     41 H5           7.3310     0.0500     1.2430 h1         1 4L4       0.074700
     42 H6           9.6660     0.3810     0.8680 ho         1 4L4       0.521000
     43 H7           8.4210     1.2280    -1.3940 h1         1 4L4       0.064700
     44 H8           7.8680     3.2370    -0.3030 ho         1 4L4       0.515000
     45 H9           6.0400     1.8760    -1.8260 h2         1 4L4       0.088700
     46 H10          1.0220     1.3450     1.4050 ha         1 4L4       0.129000
     47 H11          4.5380     1.4500     1.9990 ho         1 4L4       0.487000
     48 H12          4.1600     0.9660    -2.4480 ha         1 4L4       0.148000
     49 H13          1.7500     0.9110    -2.8260 ha         1 4L4       0.125000
     50 H14         -0.5260     1.7140    -1.8560 ha         1 4L4       0.205000
     51 H15         -1.1950    -0.1610     1.7330 hc         1 4L4       0.047033
     52 H16         -1.5420    -1.5270     0.6560 hc         1 4L4       0.047033
     53 H17          0.0880    -0.9140     0.7750 hc         1 4L4       0.047033
     54 H18         -3.2960    -0.7400     0.6090 hn         1 4L4       0.311500
     55 H19         -5.1530    -0.4670    -1.5700 h1         1 4L4       0.108700
     56 H20         -5.6350    -1.2200     1.3570 h1         1 4L4       0.038700
     57 H21         -5.4890    -3.3920     0.4950 ho         1 4L4       0.515000
     58 H22         -7.3300    -2.1450    -1.0360 h1         1 4L4       0.099700
     59 H23         -9.6040    -1.7550     1.7700 h2         1 4L4       0.054200
     60 H24         -8.2210    -1.7840     2.9370 h2         1 4L4       0.054200
     61 H25         -9.0410    -0.4830    -0.3850 h1         1 4L4       0.071700
     62 H26         -7.3480     0.6990    -1.6830 h1         1 4L4       0.050700
     63 H27         -7.3940     2.8070    -0.4730 ho         1 4L4       0.523000
     64 H28         -5.8530     1.1750     0.9430 h1         1 4L4       0.052700
     65 H29         -4.4470     1.9020    -1.1870 ho         1 4L4       0.457000
@<TRIPOS>BOND
     1     1     2 1   
     2     1    37 1   
     3     1    38 1   
     4     1    39 1   
     5     2     3 2   
     6     2     4 1   
     7     4     5 1   
     8     4     6 1   
     9     4    40 1   
    10     5    10 1   
    11     6     7 1   
    12     6     8 1   
    13     6    41 1   
    14     7    42 1   
    15     8     9 1   
    16     8    10 1   
    17     8    43 1   
    18     9    44 1   
    19    10    11 1   
    20    10    45 1   
    21    11    12 1   
    22    12    13 ar  
    23    12    16 ar  
    24    13    14 ar  
    25    13    15 1   
    26    14    18 ar  
    27    14    46 1   
    28    15    47 1   
    29    16    17 ar  
    30    16    48 1   
    31    17    18 ar  
    32    17    49 1   
    33    18    19 1   
    34    19    20 2   
    35    19    50 1   
    36    20    21 1   
    37    20    22 1   
    38    21    51 1   
    39    21    52 1   
    40    21    53 1   
    41    22    23 2   
    42    22    24 1   
    43    24    25 1   
    44    24    54 1   
    45    25    26 1   
    46    25    35 1   
    47    25    55 1   
    48    26    27 1   
    49    26    28 1   
    50    26    56 1   
    51    27    57 1   
    52    28    29 1   
    53    28    32 1   
    54    28    58 1   
    55    29    30 1   
    56    30    31 1   
    57    30    59 1   
    58    30    60 1   
    59    31    32 1   
    60    32    33 1   
    61    32    61 1   
    62    33    34 1   
    63    33    35 1   
    64    33    62 1   
    65    34    63 1   
    66    35    36 1   
    67    35    64 1   
    68    36    65 1   
@<TRIPOS>SUBSTRUCTURE
     1 4L4         1 TEMP              0 ****  ****    0 ROOT
