@<TRIPOS>MOLECULE
4L5
   43    45     1     0     0
SMALL
abcg2


@<TRIPOS>ATOM
      1 C10         34.1780   -13.2120    10.6290 ca         1 4L5       0.055200
      2 C13         36.3270   -18.0300     8.9190 c3         1 4L5      -0.111100
      3 C15         35.4380   -13.8010    10.4780 ca         1 4L5      -0.193000
      4 C17         36.5390   -11.7920    11.3090 ca         1 4L5      -0.181600
      5 C20         37.7010   -10.9220    11.6850 c          1 4L5       0.619700
      6 C24         37.9370   -14.9890    10.1000 c3         1 4L5       0.155900
      7 C01         33.2430   -17.4270     9.8430 cc         1 4L5       0.598900
      8 C02         31.8750   -17.7250     9.5140 cc         1 4L5      -0.208000
      9 C03         30.9700   -16.7190     9.4490 cd         1 4L5       0.016000
     10 C04         31.4080   -15.4070     9.7140 cd         1 4L5      -0.154000
     11 N05         32.7450   -15.2240    10.0170 na         1 4L5       0.274900
     12 N06         33.6830   -16.2010    10.0760 nd         1 4L5      -0.592800
     13 N07         30.7480   -14.2450     9.7470 nc         1 4L5      -0.261600
     14 C08         31.6730   -13.3180    10.0820 cc         1 4L5      -0.037400
     15 C09         32.9380   -13.8770    10.2640 cd         1 4L5      -0.086300
     16 C12         35.5440   -18.3130    10.2020 c3         1 4L5       0.240500
     17 C14         36.0410   -19.5690    10.9070 c3         1 4L5      -0.111100
     18 C16         36.6010   -13.1090    10.8120 ca         1 4L5       0.169100
     19 C18         35.2680   -11.2250    11.4550 ca         1 4L5      -0.029000
     20 C19         34.1120   -11.9010    11.1330 ca         1 4L5      -0.150000
     21 O21         37.5190    -9.7600    12.0670 o          1 4L5      -0.631100
     22 N22         38.9420   -11.4390    11.6020 nt         1 4L5      -0.601000
     23 O23         37.8270   -13.6820    10.6690 os         1 4L5      -0.380100
     24 H131        37.3830   -17.8650     9.1440 hc         1 4L5       0.044700
     25 H132        36.2510   -18.8810     8.2390 hc         1 4L5       0.044700
     26 H133        35.9380   -17.1450     8.4140 hc         1 4L5       0.044700
     27 H151        35.4940   -14.8070    10.1030 ha         1 4L5       0.141000
     28 H241        39.0000   -15.2110    10.0820 h1         1 4L5       0.044700
     29 H243        37.4190   -15.7260    10.7150 h1         1 4L5       0.044700
     30 H242        37.5340   -15.0040     9.0870 h1         1 4L5       0.044700
     31 H021        31.5940   -18.7530     9.3290 ha         1 4L5       0.130000
     32 H031        29.9290   -16.8900     9.2090 ha         1 4L5       0.148000
     33 H081        31.4170   -12.2740    10.1670 h4         1 4L5       0.232000
     34 H111        33.7730   -19.3700     9.7010 hn         1 4L5       0.495000
     35 H121        35.6510   -17.4620    10.8770 h1         1 4L5       0.074700
     36 H143        37.1090   -19.4850    11.1110 hc         1 4L5       0.044700
     37 H141        35.5190   -19.7210    11.8530 hc         1 4L5       0.044700
     38 H142        35.8860   -20.4510    10.2790 hc         1 4L5       0.044700
     39 H181        35.2140   -10.2170    11.8400 ha         1 4L5       0.145000
     40 H191        33.1550   -11.4210    11.2820 ha         1 4L5       0.122000
     41 H221        39.7210   -10.8570    11.8610 hn         1 4L5       0.324500
     42 H222        39.0930   -12.3860    11.2930 hn         1 4L5       0.324500
     43 N11         34.1200   -18.4520     9.9260 nu         1 4L5      -0.943100
@<TRIPOS>BOND
     1     1     3 ar  
     2     1    15 1   
     3     1    20 ar  
     4     2    16 1   
     5     2    24 1   
     6     2    25 1   
     7     2    26 1   
     8     3    18 ar  
     9     3    27 1   
    10     4     5 1   
    11     4    18 ar  
    12     4    19 ar  
    13     5    21 2   
    14     5    22 1   
    15     6    23 1   
    16     6    28 1   
    17     6    29 1   
    18     6    30 1   
    19     7     8 1   
    20     7    12 2   
    21     7    43 1   
    22     8     9 2   
    23     8    31 1   
    24     9    10 1   
    25     9    32 1   
    26    10    11 1   
    27    10    13 2   
    28    11    12 1   
    29    11    15 1   
    30    13    14 1   
    31    14    15 2   
    32    14    33 1   
    33    16    17 1   
    34    16    35 1   
    35    16    43 1   
    36    17    36 1   
    37    17    37 1   
    38    17    38 1   
    39    18    23 1   
    40    19    20 ar  
    41    19    39 1   
    42    20    40 1   
    43    22    41 1   
    44    22    42 1   
    45    34    43 1   
@<TRIPOS>SUBSTRUCTURE
     1 4L5         1 TEMP              0 ****  ****    0 ROOT
