@<TRIPOS>MOLECULE
4L5
   43    45     1     0     0
SMALL
No Charge or Current Charge


@<TRIPOS>ATOM
      1 C10         34.2060   -13.1450    10.6100 ca         1 4L5       0.055200
      2 C13         36.3210   -18.1160     8.8790 c3         1 4L5      -0.111100
      3 C15         35.4970   -13.7090    10.5230 ca         1 4L5      -0.193000
      4 C17         36.5440   -11.6180    11.2620 ca         1 4L5      -0.181600
      5 C20         37.7220   -10.7350    11.6320 c          1 4L5       0.619700
      6 C24         38.1140   -14.9250    10.3410 c3         1 4L5       0.155900
      7 C01         33.2000   -17.4220     9.8120 cc         1 4L5       0.598900
      8 C02         31.8360   -17.7620     9.5240 cc         1 4L5      -0.208000
      9 C03         30.8860   -16.7710     9.5220 cd         1 4L5       0.016000
     10 C04         31.4050   -15.4750     9.8000 cd         1 4L5      -0.154000
     11 N05         32.7430   -15.2420    10.0200 na         1 4L5       0.274900
     12 N06         33.7100   -16.2270    10.0790 nd         1 4L5      -0.592800
     13 N07         30.7300   -14.3490     9.8990 nc         1 4L5      -0.261600
     14 C08         31.6720   -13.3910    10.2030 cc         1 4L5      -0.037400
     15 C09         32.9620   -13.8960    10.2790 cd         1 4L5      -0.086300
     16 C12         35.5020   -18.4600    10.1380 c3         1 4L5       0.240500
     17 C14         35.9010   -19.8210    10.7350 c3         1 4L5      -0.111100
     18 C16         36.6600   -12.9700    10.8440 ca         1 4L5       0.169100
     19 C18         35.2520   -11.0540    11.3370 ca         1 4L5      -0.029000
     20 C19         34.1100   -11.8000    11.0160 ca         1 4L5      -0.150000
     21 O21         37.5820    -9.5750    11.9840 o          1 4L5      -0.631100
     22 N22         38.9720   -11.2310    11.5760 nt         1 4L5      -0.601000
     23 O23         37.9120   -13.5580    10.7490 os         1 4L5      -0.380100
     24 H131        37.3920   -18.0920     9.1130 hc         1 4L5       0.044700
     25 H132        36.1580   -18.8600     8.0900 hc         1 4L5       0.044700
     26 H133        36.0390   -17.1320     8.4880 hc         1 4L5       0.044700
     27 H151        35.6030   -14.7260    10.1830 ha         1 4L5       0.141000
     28 H241        39.1840   -15.1690    10.3490 h1         1 4L5       0.044700
     29 H243        37.6050   -15.6170    11.0240 h1         1 4L5       0.044700
     30 H242        37.7380   -15.0900     9.3240 h1         1 4L5       0.044700
     31 H021        31.5640   -18.7920     9.3260 ha         1 4L5       0.130000
     32 H031        29.8330   -16.9620     9.3360 ha         1 4L5       0.148000
     33 H081        31.3460   -12.3650    10.3440 h4         1 4L5       0.232000
     34 H111        33.6390   -19.3770     9.6100 hn         1 4L5       0.495000
     35 H121        35.7080   -17.6920    10.9000 h1         1 4L5       0.074700
     36 H143        36.9620   -19.8210    11.0110 hc         1 4L5       0.044700
     37 H141        35.3180   -20.0330    11.6390 hc         1 4L5       0.044700
     38 H142        35.7350   -20.6320    10.0160 hc         1 4L5       0.044700
     39 H181        35.1230   -10.0190    11.6520 ha         1 4L5       0.145000
     40 H191        33.1430   -11.3150    11.0990 ha         1 4L5       0.122000
     41 H221        39.7540   -10.6450    11.8210 hn         1 4L5       0.324500
     42 H222        39.1040   -12.1900    11.2850 hn         1 4L5       0.324500
     43 N11         34.0700   -18.4790     9.8100 nu         1 4L5      -0.943100
@<TRIPOS>BOND
     1     1     3 ar  
     2     1    15 1   
     3     1    20 ar  
     4     2    16 1   
     5     2    24 1   
     6     2    25 1   
     7     2    26 1   
     8     3    18 ar  
     9     3    27 1   
    10     4     5 1   
    11     4    18 ar  
    12     4    19 ar  
    13     5    21 2   
    14     5    22 1   
    15     6    23 1   
    16     6    28 1   
    17     6    29 1   
    18     6    30 1   
    19     7     8 1   
    20     7    12 2   
    21     7    43 1   
    22     8     9 2   
    23     8    31 1   
    24     9    10 1   
    25     9    32 1   
    26    10    11 1   
    27    10    13 2   
    28    11    12 1   
    29    11    15 1   
    30    13    14 1   
    31    14    15 2   
    32    14    33 1   
    33    16    17 1   
    34    16    35 1   
    35    16    43 1   
    36    17    36 1   
    37    17    37 1   
    38    17    38 1   
    39    18    23 1   
    40    19    20 ar  
    41    19    39 1   
    42    20    40 1   
    43    22    41 1   
    44    22    42 1   
    45    34    43 1   
@<TRIPOS>SUBSTRUCTURE
     1 4L5         1 TEMP              0 ****  ****    0 ROOT
