@<TRIPOS>MOLECULE
4L6
   38    41     1     0     0
SMALL
No Charge or Current Charge


@<TRIPOS>ATOM
      1 C1         -20.6860   -10.0770     4.1990 c3         1 4L6      -0.042800
      2 C2         -21.7160    -9.2530     4.9650 ca         1 4L6      -0.084300
      3 C3         -21.9260    -9.5370     6.3360 ca         1 4L6      -0.040000
      4 C4         -22.8870    -8.7860     7.0230 ca         1 4L6      -0.223900
      5 C5         -23.3420    -8.8200     8.3900 cc         1 4L6       0.356800
      6 N6         -24.3040    -7.9080     8.6160 nd         1 4L6      -0.515100
      7 N7         -24.4590    -7.2870     7.3670 na         1 4L6      -0.076400
      8 C9         -23.6110    -7.8140     6.4170 ca         1 4L6      -0.035200
      9 C10        -23.4400    -7.4950     5.0670 ca         1 4L6      -0.114000
     10 C11        -22.4700    -8.2160     4.3200 cp         1 4L6       0.014000
     11 C12        -22.2760    -7.8920     2.8750 cp         1 4L6      -0.017000
     12 C13        -23.2450    -8.3230     1.9430 ca         1 4L6      -0.078000
     13 C14        -23.0980    -8.0530     0.5770 ca         1 4L6      -0.114000
     14 C15        -21.9830    -7.3400     0.1190 ca         1 4L6      -0.081000
     15 C16        -21.0010    -6.8790     1.0320 ca         1 4L6      -0.142000
     16 C17        -19.8610    -6.1460     0.6110 ca         1 4L6       0.420000
     17 N18        -19.6720    -5.8530    -0.7260 nv         1 4L6      -1.087000
     18 C19        -18.9290    -5.7290     1.6030 ca         1 4L6       0.077500
     19 N20        -19.1330    -6.0280     2.9120 nb         1 4L6      -0.273000
     20 N21        -20.2110    -6.7210     3.2990 nb         1 4L6      -0.345000
     21 C22        -21.1440    -7.1570     2.4180 ca         1 4L6       0.263000
     22 C23        -17.6860    -4.9160     1.2530 c          1 4L6       0.531600
     23 N24        -16.8300    -4.6160     2.2590 nt         1 4L6      -0.577000
     24 O25        -17.4170    -4.5090     0.1310 o          1 4L6      -0.669100
     25 H1         -19.7600    -9.5100     4.0520 hc         1 4L6       0.043033
     26 H1A        -20.4280   -11.0000     4.7320 hc         1 4L6       0.043033
     27 H1B        -21.0630   -10.3690     3.2110 hc         1 4L6       0.043033
     28 H3         -21.3620   -10.3170     6.8450 ha         1 4L6       0.118000
     29 H5         -23.0380    -9.4430     9.2220 h4         1 4L6       0.048800
     30 H10        -24.0300    -6.7100     4.6000 ha         1 4L6       0.121000
     31 H13        -24.1120    -8.8810     2.2890 ha         1 4L6       0.125000
     32 H14        -23.8500    -8.4010    -0.1290 ha         1 4L6       0.120000
     33 H15        -21.8970    -7.1560    -0.9490 ha         1 4L6       0.108000
     34 HN18       -18.8910    -5.2210    -0.9330 hn         1 4L6       0.521000
     35 HN1A       -20.4810    -5.7760    -1.3370 hn         1 4L6       0.521000
     36 HN24       -16.0010    -4.0760     2.0630 hn         1 4L6       0.332500
     37 HN2A       -17.0300    -4.9340     3.1970 hn         1 4L6       0.332500
     38 H7         -25.1330    -6.5360     7.2230 hn         1 4L6       0.375000
@<TRIPOS>BOND
     1     1     2 1   
     2     1    25 1   
     3     1    26 1   
     4     1    27 1   
     5     2     3 ar  
     6     2    10 ar  
     7     3     4 ar  
     8     3    28 1   
     9     4     5 1   
    10     4     8 ar  
    11     5     6 2   
    12     5    29 1   
    13     6     7 1   
    14     7     8 1   
    15     7    38 1   
    16     8     9 ar  
    17     9    10 ar  
    18     9    30 1   
    19    10    11 1   
    20    11    12 ar  
    21    11    21 ar  
    22    12    13 ar  
    23    12    31 1   
    24    13    14 ar  
    25    13    32 1   
    26    14    15 ar  
    27    14    33 1   
    28    15    16 ar  
    29    15    21 ar  
    30    16    17 1   
    31    16    18 ar  
    32    17    34 1   
    33    17    35 1   
    34    18    19 ar  
    35    18    22 1   
    36    19    20 ar  
    37    20    21 ar  
    38    22    23 1   
    39    22    24 2   
    40    23    36 1   
    41    23    37 1   
@<TRIPOS>SUBSTRUCTURE
     1 4L6         1 TEMP              0 ****  ****    0 ROOT
