@<TRIPOS>MOLECULE
4L6
   38    41     1     0     0
SMALL
abcg2


@<TRIPOS>ATOM
      1 C1         -20.7440   -10.0590     4.0850 c3         1 4L6      -0.042800
      2 C2         -21.7090    -9.2510     4.9110 ca         1 4L6      -0.084300
      3 C3         -21.8840    -9.5320     6.2520 ca         1 4L6      -0.040000
      4 C4         -22.7940    -8.7790     7.0110 ca         1 4L6      -0.223900
      5 C5         -23.2340    -8.7590     8.3650 cc         1 4L6       0.356800
      6 N6         -24.1400    -7.8160     8.5560 nd         1 4L6      -0.515100
      7 N7         -24.3160    -7.2060     7.3590 na         1 4L6      -0.076400
      8 C9         -23.5280    -7.7470     6.3890 ca         1 4L6      -0.035200
      9 C10        -23.3720    -7.4500     5.0310 ca         1 4L6      -0.114000
     10 C11        -22.4600    -8.1970     4.3080 cp         1 4L6       0.014000
     11 C12        -22.2930    -7.8970     2.8590 cp         1 4L6      -0.017000
     12 C13        -23.2300    -8.3260     1.9460 ca         1 4L6      -0.078000
     13 C14        -23.0900    -8.0590     0.5720 ca         1 4L6      -0.114000
     14 C15        -22.0070    -7.3550     0.1080 ca         1 4L6      -0.081000
     15 C16        -21.0310    -6.8860     1.0100 ca         1 4L6      -0.142000
     16 C17        -19.8820    -6.1290     0.6050 ca         1 4L6       0.420000
     17 N18        -19.6590    -5.8130    -0.6720 nv         1 4L6      -1.087000
     18 C19        -19.0080    -5.7400     1.6430 ca         1 4L6       0.077500
     19 N20        -19.2380    -6.0490     2.9340 nb         1 4L6      -0.273000
     20 N21        -20.2670    -6.7230     3.3270 nb         1 4L6      -0.345000
     21 C22        -21.1710    -7.1570     2.3930 ca         1 4L6       0.263000
     22 C23        -17.7690    -4.9540     1.3860 c          1 4L6       0.531600
     23 N24        -17.0270    -4.6620     2.4650 nt         1 4L6      -0.577000
     24 O25        -17.4450    -4.5940     0.2430 o          1 4L6      -0.669100
     25 H1         -19.9440    -9.4330     3.6840 hc         1 4L6       0.043033
     26 H1A        -20.2920   -10.8460     4.6880 hc         1 4L6       0.043033
     27 H1B        -21.2430   -10.5240     3.2320 hc         1 4L6       0.043033
     28 H3         -21.3210   -10.3350     6.7130 ha         1 4L6       0.118000
     29 H5         -22.9240    -9.3880     9.1850 h4         1 4L6       0.048800
     30 H10        -23.9340    -6.6560     4.5590 ha         1 4L6       0.121000
     31 H13        -24.0870    -8.8880     2.2950 ha         1 4L6       0.125000
     32 H14        -23.8410    -8.4160    -0.1200 ha         1 4L6       0.120000
     33 H15        -21.9150    -7.1680    -0.9530 ha         1 4L6       0.108000
     34 HN18       -18.8290    -5.2730    -0.8830 hn         1 4L6       0.521000
     35 HN1A       -20.2950    -6.0770    -1.4040 hn         1 4L6       0.521000
     36 HN24       -16.1820    -4.1260     2.3560 hn         1 4L6       0.332500
     37 HN2A       -17.3280    -4.9660     3.3780 hn         1 4L6       0.332500
     38 H7         -24.9710    -6.4460     7.2770 hn         1 4L6       0.375000
@<TRIPOS>BOND
     1     1     2 1   
     2     1    25 1   
     3     1    26 1   
     4     1    27 1   
     5     2     3 ar  
     6     2    10 ar  
     7     3     4 ar  
     8     3    28 1   
     9     4     5 1   
    10     4     8 ar  
    11     5     6 2   
    12     5    29 1   
    13     6     7 1   
    14     7     8 1   
    15     7    38 1   
    16     8     9 ar  
    17     9    10 ar  
    18     9    30 1   
    19    10    11 1   
    20    11    12 ar  
    21    11    21 ar  
    22    12    13 ar  
    23    12    31 1   
    24    13    14 ar  
    25    13    32 1   
    26    14    15 ar  
    27    14    33 1   
    28    15    16 ar  
    29    15    21 ar  
    30    16    17 1   
    31    16    18 ar  
    32    17    34 1   
    33    17    35 1   
    34    18    19 ar  
    35    18    22 1   
    36    19    20 ar  
    37    20    21 ar  
    38    22    23 1   
    39    22    24 2   
    40    23    36 1   
    41    23    37 1   
@<TRIPOS>SUBSTRUCTURE
     1 4L6         1 TEMP              0 ****  ****    0 ROOT
