@<TRIPOS>MOLECULE
4L7
   38    41     1     0     0
SMALL
No Charge or Current Charge


@<TRIPOS>ATOM
      1 C4          -1.0360     2.0510     0.8890 c          1 4L7       0.617700
      2 C5           0.0430     1.8200    -0.2130 c5         1 4L7      -0.160700
      3 C6          -0.2360     2.8340    -1.3570 c5         1 4L7       0.154800
      4 C7           1.8730     3.4320    -0.6140 c5         1 4L7       0.155800
      5 C1          -4.3390     0.2930     1.2450 cc         1 4L7      -0.107000
      6 C2          -3.2940     1.1860     1.5890 cc         1 4L7      -0.066000
      7 C3          -2.2210     1.1550     0.7230 cd         1 4L7      -0.308600
      8 C           -4.0760    -0.4230     0.1110 cd         1 4L7      -0.170900
      9 O           -0.9840     2.8910     1.7800 o          1 4L7      -0.497100
     10 N            0.5660     4.0110    -0.9780 n7         1 4L7      -0.848400
     11 C15          5.2310    -2.1700    -0.6630 c          1 4L7       0.576600
     12 N1           5.9020    -2.5330     0.4520 ns         1 4L7      -0.431400
     13 C16          5.7410    -1.9500     1.6820 cc         1 4L7       0.501800
     14 N2           4.9020    -0.9470     1.9490 nd         1 4L7      -0.619100
     15 C11          4.1580    -0.5030     0.8390 ca         1 4L7       0.183400
     16 C10          3.2510     0.5530     1.0450 ca         1 4L7      -0.094000
     17 C12          4.2740    -1.0570    -0.4500 ca         1 4L7      -0.203600
     18 C13          3.4920    -0.5560    -1.5090 ca         1 4L7      -0.041000
     19 C14          2.5930     0.4980    -1.2850 ca         1 4L7      -0.135000
     20 C9           2.4600     1.0690    -0.0010 ca         1 4L7      -0.042300
     21 C8           1.4850     2.2220     0.2900 c5         1 4L7      -0.021400
     22 S           -2.5010    -0.0220    -0.5880 ss         1 4L7       0.280000
     23 H2          -0.0150     0.8050    -0.6100 hc         1 4L7       0.073700
     24 H4           0.1110     2.4330    -2.3210 h1         1 4L7       0.043700
     25 H3          -1.3030     3.0770    -1.4640 h1         1 4L7       0.043700
     26 H6           2.4100     3.1170    -1.5210 h1         1 4L7       0.043700
     27 H7           2.5110     4.1560    -0.0870 h1         1 4L7       0.043700
     28 H1          -3.3590     1.8330     2.4610 ha         1 4L7       0.155000
     29 H5           0.6650     4.6550    -1.7750 hn         1 4L7       0.420000
     30 H12          6.5640    -3.2880     0.3520 hn         1 4L7       0.332500
     31 H13          6.3780    -2.3930     2.4380 h5         1 4L7       0.047800
     32 H9           3.1640     0.9770     2.0420 ha         1 4L7       0.138000
     33 H10          3.5790    -0.9810    -2.5080 ha         1 4L7       0.136000
     34 H11          2.0000     0.8680    -2.1180 ha         1 4L7       0.116000
     35 H8           1.4960     2.5150     1.3460 hc         1 4L7       0.093700
     36 H           -5.2490     0.2040     1.8320 ha         1 4L7       0.150000
     37 Br          -5.1720    -1.7150    -0.7170 br         1 4L7      -0.027100
     38 O1           5.4120    -2.7240    -1.7370 o          1 4L7      -0.534000
@<TRIPOS>BOND
     1     1     2 1   
     2     1     7 1   
     3     1     9 2   
     4     2     3 1   
     5     2    21 1   
     6     2    23 1   
     7     3    10 1   
     8     3    24 1   
     9     3    25 1   
    10     4    10 1   
    11     4    21 1   
    12     4    26 1   
    13     4    27 1   
    14     5     6 1   
    15     5     8 2   
    16     5    36 1   
    17     6     7 2   
    18     6    28 1   
    19     7    22 1   
    20     8    22 1   
    21     8    37 1   
    22    10    29 1   
    23    11    12 1   
    24    11    17 1   
    25    11    38 2   
    26    12    13 1   
    27    12    30 1   
    28    13    14 2   
    29    13    31 1   
    30    14    15 1   
    31    15    16 ar  
    32    15    17 ar  
    33    16    20 ar  
    34    16    32 1   
    35    17    18 ar  
    36    18    19 ar  
    37    18    33 1   
    38    19    20 ar  
    39    19    34 1   
    40    20    21 1   
    41    21    35 1   
@<TRIPOS>SUBSTRUCTURE
     1 4L7         1 TEMP              0 ****  ****    0 ROOT
