@<TRIPOS>MOLECULE
4L7
   38    41     1     0     0
SMALL
bcc


@<TRIPOS>ATOM
      1 C4          -0.9560     1.8190     0.9350 c          1 4L7       0.617700
      2 C5           0.0410     1.7060    -0.1970 c5         1 4L7      -0.160700
      3 C6          -0.3160     2.7410    -1.2880 c5         1 4L7       0.154800
      4 C7           1.7930     3.3400    -0.6220 c5         1 4L7       0.155800
      5 C1          -4.4620     0.5310     1.1520 cc         1 4L7      -0.125000
      6 C2          -3.3370     1.2600     1.5900 cc         1 4L7      -0.084000
      7 C3          -2.2590     1.1590     0.7490 cd         1 4L7      -0.163700
      8 C           -4.2120    -0.1150    -0.0250 cd         1 4L7      -0.026000
      9 O           -0.7470     2.4530     1.9470 o          1 4L7      -0.497100
     10 N            0.4770     3.8860    -0.8910 n7         1 4L7      -0.793200
     11 C15          5.3200    -2.1260    -0.6610 c          1 4L7       0.719100
     12 N1           6.0590    -2.4050     0.4690 ns         1 4L7      -0.498400
     13 C16          5.8960    -1.7680     1.6550 cc         1 4L7       0.501800
     14 N2           5.0460    -0.8350     1.8740 nd         1 4L7      -0.619100
     15 C11          4.2470    -0.4630     0.8150 ca         1 4L7       0.183400
     16 C10          3.3050     0.5560     1.0130 ca         1 4L7      -0.112000
     17 C12          4.3430    -1.0670    -0.4470 ca         1 4L7      -0.203600
     18 C13          3.5030    -0.6470    -1.4840 ca         1 4L7      -0.059000
     19 C14          2.5890     0.3560    -1.2690 ca         1 4L7      -0.153000
     20 C9           2.4780     0.9740    -0.0100 ca         1 4L7      -0.042300
     21 C8           1.4860     2.0800     0.2130 c5         1 4L7      -0.021400
     22 S           -2.6270     0.1520    -0.6060 ss         1 4L7      -0.009800
     23 H2          -0.0030     0.6920    -0.6040 hc         1 4L7       0.073700
     24 H4          -0.0330     2.3290    -2.2680 h1         1 4L7       0.043700
     25 H3          -1.3790     2.9870    -1.3320 h1         1 4L7       0.043700
     26 H6           2.3330     3.0580    -1.5380 h1         1 4L7       0.043700
     27 H7           2.4180     4.0480    -0.0760 h1         1 4L7       0.043700
     28 H1          -3.3240     1.8470     2.4970 ha         1 4L7       0.173000
     29 H5           0.5020     4.5920    -1.6160 hn         1 4L7       0.364800
     30 H12          6.7620    -3.1300     0.4050 hn         1 4L7       0.332500
     31 H13          6.5520    -2.1030     2.4500 h5         1 4L7       0.047800
     32 H9           3.2400     1.0130     1.9930 ha         1 4L7       0.156000
     33 H10          3.5780    -1.1140    -2.4570 ha         1 4L7       0.154000
     34 H11          1.9500     0.6710    -2.0860 ha         1 4L7       0.134000
     35 H8           1.4990     2.3480     1.2700 hc         1 4L7       0.093700
     36 H           -5.4050     0.4880     1.6770 ha         1 4L7       0.168000
     37 BR          -5.3840    -1.1940    -0.9730 br         1 4L7      -0.027100
     38 O1           5.5020    -2.7270    -1.7040 o          1 4L7      -0.609500
@<TRIPOS>BOND
     1     1     2 1   
     2     1     7 1   
     3     1     9 2   
     4     2     3 1   
     5     2    21 1   
     6     2    23 1   
     7     3    10 1   
     8     3    24 1   
     9     3    25 1   
    10     4    10 1   
    11     4    21 1   
    12     4    26 1   
    13     4    27 1   
    14     5     6 1   
    15     5     8 2   
    16     5    36 1   
    17     6     7 2   
    18     6    28 1   
    19     7    22 1   
    20     8    22 1   
    21     8    37 1   
    22    10    29 1   
    23    11    12 1   
    24    11    17 1   
    25    11    38 2   
    26    12    13 1   
    27    12    30 1   
    28    13    14 2   
    29    13    31 1   
    30    14    15 1   
    31    15    16 ar  
    32    15    17 ar  
    33    16    20 ar  
    34    16    32 1   
    35    17    18 ar  
    36    18    19 ar  
    37    18    33 1   
    38    19    20 ar  
    39    19    34 1   
    40    20    21 1   
    41    21    35 1   
@<TRIPOS>SUBSTRUCTURE
     1 4L7         1 TEMP              0 ****  ****    0 ROOT
