@<TRIPOS>MOLECULE
4L8
   24    23     1     0     0
SMALL
abcg2


@<TRIPOS>ATOM
      1 CB           0.8850    -0.6030     0.2160 c3         1 4L8      -0.055400
      2 C1          -0.6050     1.3890     0.6950 c3         1 4L8       0.180800
      3 C           -1.5780    -0.8510    -0.0830 c          1 4L8       0.721000
      4 O           -2.3850    -0.7380     0.8650 o          1 4L8      -0.742000
      5 CA          -0.4010     0.1470    -0.1590 c3         1 4L8      -0.193700
      6 CG           2.2020     0.1660     0.0700 c3         1 4L8      -0.064700
      7 CD1          3.3650    -0.7190     0.5120 c3         1 4L8      -0.082100
      8 CD2          2.4220     0.6570    -1.3570 c3         1 4L8      -0.082100
      9 OXT         -1.6150    -1.7260    -0.9720 o          1 4L8      -0.742000
     10 H1           0.7990    -0.9550     1.2510 hc         1 4L8       0.041200
     11 H2           0.9470    -1.5010    -0.4070 hc         1 4L8       0.041200
     12 H3          -0.6330     1.0940     1.7540 h1         1 4L8       0.000200
     13 H4           0.2620     2.0460     0.5860 h1         1 4L8       0.000200
     14 H6          -0.3190     0.4680    -1.2040 hc         1 4L8       0.045700
     15 H7           2.1840     1.0380     0.7320 hc         1 4L8       0.031700
     16 H8           3.4570    -1.5940    -0.1360 hc         1 4L8       0.021700
     17 H9           4.3130    -0.1790     0.4750 hc         1 4L8       0.021700
     18 H10          3.2290    -1.0780     1.5340 hc         1 4L8       0.021700
     19 H11          1.6740     1.3910    -1.6600 hc         1 4L8       0.021700
     20 H12          3.4010     1.1270    -1.4650 hc         1 4L8       0.021700
     21 H13          2.3730    -0.1760    -2.0630 hc         1 4L8       0.021700
     22 N           -1.7790     2.1420     0.2710 n8         1 4L8      -1.003200
     23 H5          -2.5980     1.5920     0.5000 hn         1 4L8       0.387000
     24 H15         -1.8510     2.9870     0.8240 hn         1 4L8       0.387000
@<TRIPOS>BOND
     1     1     5 1   
     2     1     6 1   
     3     1    10 1   
     4     1    11 1   
     5     2     5 1   
     6     2    12 1   
     7     2    13 1   
     8     2    22 1   
     9     3     4 1   
    10     3     5 1   
    11     3     9 1   
    12     5    14 1   
    13     6     7 1   
    14     6     8 1   
    15     6    15 1   
    16     7    16 1   
    17     7    17 1   
    18     7    18 1   
    19     8    19 1   
    20     8    20 1   
    21     8    21 1   
    22    22    23 1   
    23    22    24 1   
@<TRIPOS>SUBSTRUCTURE
     1 4L8         1 TEMP              0 ****  ****    0 ROOT
