@<TRIPOS>MOLECULE
4L8
   24    23     1     0     0
SMALL
No Charge or Current Charge


@<TRIPOS>ATOM
      1 CB           0.8970    -0.6270     0.2380 c3         1 4L8      -0.055400
      2 C1          -0.6500     1.4000     0.6850 c3         1 4L8       0.180800
      3 C           -1.6170    -0.8370    -0.0630 c          1 4L8       0.721000
      4 O           -1.9190    -1.3000     1.0280 o          1 4L8      -0.742000
      5 CA          -0.4130     0.1250    -0.1570 c3         1 4L8      -0.193700
      6 CG           2.2380     0.1460     0.0550 c3         1 4L8      -0.064700
      7 CD1          3.4280    -0.6990     0.5630 c3         1 4L8      -0.082100
      8 CD2          2.4810     0.6090    -1.4020 c3         1 4L8      -0.082100
      9 OXT         -2.2090    -1.1250    -1.0940 o          1 4L8      -0.742000
     10 H1           0.8160    -0.9370     1.2870 hc         1 4L8       0.041200
     11 H2           0.9510    -1.5530    -0.3490 hc         1 4L8       0.041200
     12 H3          -0.8210     1.1350     1.7370 h1         1 4L8       0.000200
     13 H4           0.2310     2.0520     0.6330 h1         1 4L8       0.000200
     14 H6          -0.3210     0.4250    -1.2070 hc         1 4L8       0.045700
     15 H7           2.2060     1.0440     0.6830 hc         1 4L8       0.031700
     16 H8           3.5360    -1.6170    -0.0270 hc         1 4L8       0.021700
     17 H9           4.3650    -0.1330     0.4910 hc         1 4L8       0.021700
     18 H10          3.2860    -0.9790     1.6130 hc         1 4L8       0.021700
     19 H11          1.7270     1.3390    -1.7170 hc         1 4L8       0.021700
     20 H12          3.4620     1.0900    -1.4960 hc         1 4L8       0.021700
     21 H13          2.4500    -0.2430    -2.0930 hc         1 4L8       0.021700
     22 N           -1.7950     2.1860     0.2060 n8         1 4L8      -1.003200
     23 H5          -2.6500     1.6330     0.3360 hn         1 4L8       0.387000
     24 H15         -1.9300     2.9880     0.8320 hn         1 4L8       0.387000
@<TRIPOS>BOND
     1     1     5 1   
     2     1     6 1   
     3     1    10 1   
     4     1    11 1   
     5     2     5 1   
     6     2    12 1   
     7     2    13 1   
     8     2    22 1   
     9     3     4 1   
    10     3     5 1   
    11     3     9 1   
    12     5    14 1   
    13     6     7 1   
    14     6     8 1   
    15     6    15 1   
    16     7    16 1   
    17     7    17 1   
    18     7    18 1   
    19     8    19 1   
    20     8    20 1   
    21     8    21 1   
    22    22    23 1   
    23    22    24 1   
@<TRIPOS>SUBSTRUCTURE
     1 4L8         1 TEMP              0 ****  ****    0 ROOT
