@<TRIPOS>MOLECULE
4L9
   57    59     1     0     0
SMALL
No Charge or Current Charge


@<TRIPOS>ATOM
      1 C1          -1.3450     1.3090     0.9150 c3         1 4L9      -0.108100
      2 C2          -0.9470     1.1470    -0.5720 c3         1 4L9       0.035700
      3 O5           0.8170    -0.4330    -1.2040 o          1 4L9      -0.602100
      4 N6           1.4860     1.5460    -0.2950 ns         1 4L9      -0.479900
      5 C7           2.9470     1.3070    -0.3290 c3         1 4L9       0.034700
      6 C9           3.5060     1.5000    -1.7600 c3         1 4L9      -0.055200
      7 C10          4.9610     1.1160    -1.9730 c2         1 4L9      -0.192200
      8 C11          5.9050     0.8520    -1.0500 c2         1 4L9      -0.235200
      9 C12          5.7830     0.8820     0.4620 c3         1 4L9       0.202200
     10 C15          3.6610     2.2250     0.7100 c          1 4L9       0.552000
     11 C19          5.0520    -1.5910     0.3260 ca         1 4L9      -0.093000
     12 C20          4.5790    -2.7670     0.9340 ca         1 4L9      -0.108500
     13 C21          4.3270    -2.7970     2.3140 ca         1 4L9      -0.103000
     14 C22          4.5520    -1.6480     3.0890 ca         1 4L9      -0.108500
     15 C27         -3.9330    -0.6110    -2.3120 c3         1 4L9      -0.120100
     16 C30         -5.3910    -2.8140     0.4690 ca         1 4L9       0.200500
     17 C31         -6.7180    -2.3660     0.5280 ca         1 4L9      -0.196000
     18 C32         -7.1390    -1.3480    -0.3380 ca         1 4L9       0.200500
     19 C33         -6.2440    -0.7800    -1.2580 ca         1 4L9      -0.156000
     20 C4           0.5230     0.6590    -0.7300 c          1 4L9       0.598100
     21 N14          5.0520     2.0870     0.9100 n          1 4L9      -0.400800
     22 O16          3.0370     3.0940     1.3130 o          1 4L9      -0.566000
     23 C17          5.7750     3.0490     1.7740 c3         1 4L9       0.089300
     24 C18          5.2730    -0.4240     1.0940 ca         1 4L9      -0.108300
     25 C23          5.0240    -0.4710     2.4830 ca         1 4L9      -0.093000
     26 N24         -1.8760     0.2250    -1.2630 ns         1 4L9      -0.501900
     27 C25         -3.1600     0.5340    -1.6550 c          1 4L9       0.604100
     28 O26         -3.6450     1.6430    -1.4820 o          1 4L9      -0.596100
     29 C28         -4.9110    -1.2280    -1.3200 ca         1 4L9      -0.011300
     30 C29         -4.4890    -2.2510    -0.4480 ca         1 4L9      -0.156000
     31 F35         -4.9780    -3.7940     1.3010 f          1 4L9      -0.174000
     32 H1          -0.6870     2.0240     1.4230 hc         1 4L9       0.053367
     33 H2          -2.3730     1.6780     1.0070 hc         1 4L9       0.053367
     34 H3          -1.2780     0.3480     1.4400 hc         1 4L9       0.053367
     35 H4          -1.0060     2.1290    -1.0600 h1         1 4L9       0.081700
     36 H5           1.1600     2.4180     0.1080 hn         1 4L9       0.318500
     37 H6           3.1140     0.2690    -0.0230 h1         1 4L9       0.103700
     38 H7           2.8930     0.9050    -2.4490 hc         1 4L9       0.063200
     39 H8           3.3590     2.5460    -2.0570 hc         1 4L9       0.063200
     40 H9           5.2300     1.0520    -3.0300 ha         1 4L9       0.176000
     41 H10          6.9100     0.5850    -1.3830 ha         1 4L9       0.181000
     42 H11          6.8120     0.9780     0.8340 h1         1 4L9       0.065700
     43 H12          5.2380    -1.5990    -0.7450 ha         1 4L9       0.117500
     44 H13          4.4080    -3.6570     0.3320 ha         1 4L9       0.114500
     45 H14          3.9610    -3.7080     2.7830 ha         1 4L9       0.114000
     46 H15          4.3610    -1.6700     4.1590 ha         1 4L9       0.114500
     47 H16         -4.4830    -0.2130    -3.1730 hc         1 4L9       0.071200
     48 H17         -3.2360    -1.3840    -2.6540 hc         1 4L9       0.071200
     49 H18         -7.4130    -2.8040     1.2380 ha         1 4L9       0.149000
     50 H19         -6.5900     0.0120    -1.9190 ha         1 4L9       0.135500
     51 H20          5.5440     2.8470     2.8280 h1         1 4L9       0.044367
     52 H21          6.8590     2.9700     1.6230 h1         1 4L9       0.044367
     53 H22          5.4680     4.0740     1.5300 h1         1 4L9       0.044367
     54 H23          5.1960     0.4070     3.1010 ha         1 4L9       0.117500
     55 H24         -1.5470    -0.7130    -1.4690 hn         1 4L9       0.336500
     56 H25         -3.4640    -2.6120    -0.4760 ha         1 4L9       0.135500
     57 F34         -8.4160    -0.9110    -0.2860 f          1 4L9      -0.174000
@<TRIPOS>BOND
     1     1     2 1   
     2     1    32 1   
     3     1    33 1   
     4     1    34 1   
     5     2    20 1   
     6     2    26 1   
     7     2    35 1   
     8     3    20 2   
     9     4     5 1   
    10     4    20 1   
    11     4    36 1   
    12     5     6 1   
    13     5    10 1   
    14     5    37 1   
    15     6     7 1   
    16     6    38 1   
    17     6    39 1   
    18     7     8 2   
    19     7    40 1   
    20     8     9 1   
    21     8    41 1   
    22     9    21 1   
    23     9    24 1   
    24     9    42 1   
    25    10    21 1   
    26    10    22 2   
    27    11    12 ar  
    28    11    24 ar  
    29    11    43 1   
    30    12    13 ar  
    31    12    44 1   
    32    13    14 ar  
    33    13    45 1   
    34    14    25 ar  
    35    14    46 1   
    36    15    27 1   
    37    15    29 1   
    38    15    47 1   
    39    15    48 1   
    40    16    17 ar  
    41    16    30 ar  
    42    16    31 1   
    43    17    18 ar  
    44    17    49 1   
    45    18    19 ar  
    46    18    57 1   
    47    19    29 ar  
    48    19    50 1   
    49    21    23 1   
    50    23    51 1   
    51    23    52 1   
    52    23    53 1   
    53    24    25 ar  
    54    25    54 1   
    55    26    27 1   
    56    26    55 1   
    57    27    28 2   
    58    29    30 ar  
    59    30    56 1   
@<TRIPOS>SUBSTRUCTURE
     1 4L9         1 TEMP              0 ****  ****    0 ROOT
