@<TRIPOS>MOLECULE
4L9
   57    59     1     0     0
SMALL
bcc


@<TRIPOS>ATOM
      1 C1          -0.9280     2.2940     0.8330 c3         1 4L9      -0.108100
      2 C2          -0.7010     1.1290    -0.1350 c3         1 4L9       0.035700
      3 O5           1.1370    -0.2340     0.6090 o          1 4L9      -0.602100
      4 N6           1.5930     1.4520    -0.8160 ns         1 4L9      -0.546900
      5 C7           3.0200     1.3520    -0.6650 c3         1 4L9       0.034700
      6 C9           3.6960     2.2200    -1.7220 c3         1 4L9      -0.055200
      7 C10          5.1840     2.1150    -1.7760 c2         1 4L9      -0.142200
      8 C11          5.9950     1.4760    -0.9400 c2         1 4L9      -0.185200
      9 C12          5.6300     0.7440     0.3300 c3         1 4L9       0.202200
     10 C15          3.4320     1.8110     0.7350 c          1 4L9       0.694500
     11 C19          5.6510    -1.4080    -1.0270 ca         1 4L9      -0.111000
     12 C20          5.3920    -2.7660    -1.1640 ca         1 4L9      -0.126500
     13 C21          4.7610    -3.4640    -0.1440 ca         1 4L9      -0.121000
     14 C22          4.3930    -2.7930     1.0140 ca         1 4L9      -0.126500
     15 C27         -3.4440    -1.4590     0.1720 c3         1 4L9      -0.120100
     16 C30         -7.0530    -0.7820     0.9930 ca         1 4L9       0.165400
     17 C31         -7.7250    -1.1760    -0.1490 ca         1 4L9      -0.214000
     18 C32         -6.9520    -1.6750    -1.1790 ca         1 4L9       0.165400
     19 C33         -5.5780    -1.7840    -1.1020 ca         1 4L9      -0.174000
     20 C4           0.7600     0.7020    -0.0770 c          1 4L9       0.665100
     21 N14          4.6560     1.4480     1.1620 n          1 4L9      -0.467800
     22 O16          2.6830     2.5010     1.4090 o          1 4L9      -0.641500
     23 C17          5.0880     1.9210     2.4670 c3         1 4L9       0.089300
     24 C18          5.2870    -0.7290     0.1320 ca         1 4L9      -0.108300
     25 C23          4.6550    -1.4380     1.1510 ca         1 4L9      -0.111000
     26 N24         -1.5240    -0.0100     0.1850 ns         1 4L9      -0.568900
     27 C25         -2.7760    -0.1650    -0.2700 c          1 4L9       0.671100
     28 O26         -3.3300     0.6400    -1.0010 o          1 4L9      -0.596100
     29 C28         -4.9360    -1.3790     0.0630 ca         1 4L9      -0.011300
     30 C29         -5.6810    -0.8720     1.1230 ca         1 4L9      -0.174000
     31 F35         -7.7690    -0.2930     2.0140 f          1 4L9      -0.138900
     32 H1          -0.3230     3.1570     0.5580 hc         1 4L9       0.053367
     33 H2          -1.9740     2.5950     0.8100 hc         1 4L9       0.053367
     34 H3          -0.6690     2.0070     1.8520 hc         1 4L9       0.053367
     35 H4          -0.9400     1.4580    -1.1480 h1         1 4L9       0.081700
     36 H5           1.2240     2.2700    -1.2760 hn         1 4L9       0.318500
     37 H6           3.3120     0.3110    -0.8190 h1         1 4L9       0.103700
     38 H7           3.3020     1.9340    -2.7020 hc         1 4L9       0.063200
     39 H8           3.4100     3.2690    -1.5820 hc         1 4L9       0.063200
     40 H9           5.6370     2.6170    -2.6230 ha         1 4L9       0.126000
     41 H10          7.0530     1.4740    -1.1720 ha         1 4L9       0.131000
     42 H11          6.5450     0.7460     0.9260 h1         1 4L9       0.065700
     43 H12          6.1320    -0.8790    -1.8390 ha         1 4L9       0.135500
     44 H13          5.6800    -3.2760    -2.0750 ha         1 4L9       0.132500
     45 H14          4.5540    -4.5210    -0.2530 ha         1 4L9       0.132000
     46 H15          3.8960    -3.3240     1.8160 ha         1 4L9       0.132500
     47 H16         -3.0590    -2.2620    -0.4630 hc         1 4L9       0.071200
     48 H17         -3.1480    -1.7050     1.1940 hc         1 4L9       0.071200
     49 H18         -8.8010    -1.1010    -0.2290 ha         1 4L9       0.167000
     50 H19         -5.0170    -2.1860    -1.9360 ha         1 4L9       0.153500
     51 H20          4.2900     1.8180     3.1990 h1         1 4L9       0.044367
     52 H21          5.9300     1.3210     2.8020 h1         1 4L9       0.044367
     53 H22          5.4000     2.9670     2.4400 h1         1 4L9       0.044367
     54 H23          4.3530    -0.9310     2.0590 ha         1 4L9       0.135500
     55 H24         -1.1330    -0.6960     0.8140 hn         1 4L9       0.336500
     56 H25         -5.2000    -0.5500     2.0380 ha         1 4L9       0.153500
     57 F34         -7.5690    -2.0680    -2.3020 f          1 4L9      -0.138900
@<TRIPOS>BOND
     1     1     2 1   
     2     1    32 1   
     3     1    33 1   
     4     1    34 1   
     5     2    20 1   
     6     2    26 1   
     7     2    35 1   
     8     3    20 2   
     9     4     5 1   
    10     4    20 1   
    11     4    36 1   
    12     5     6 1   
    13     5    10 1   
    14     5    37 1   
    15     6     7 1   
    16     6    38 1   
    17     6    39 1   
    18     7     8 2   
    19     7    40 1   
    20     8     9 1   
    21     8    41 1   
    22     9    21 1   
    23     9    24 1   
    24     9    42 1   
    25    10    21 1   
    26    10    22 2   
    27    11    12 ar  
    28    11    24 ar  
    29    11    43 1   
    30    12    13 ar  
    31    12    44 1   
    32    13    14 ar  
    33    13    45 1   
    34    14    25 ar  
    35    14    46 1   
    36    15    27 1   
    37    15    29 1   
    38    15    47 1   
    39    15    48 1   
    40    16    17 ar  
    41    16    30 ar  
    42    16    31 1   
    43    17    18 ar  
    44    17    49 1   
    45    18    19 ar  
    46    18    57 1   
    47    19    29 ar  
    48    19    50 1   
    49    21    23 1   
    50    23    51 1   
    51    23    52 1   
    52    23    53 1   
    53    24    25 ar  
    54    25    54 1   
    55    26    27 1   
    56    26    55 1   
    57    27    28 2   
    58    29    30 ar  
    59    30    56 1   
@<TRIPOS>SUBSTRUCTURE
     1 4L9         1 TEMP              0 ****  ****    0 ROOT
