@<TRIPOS>MOLECULE
4LB
   41    42     1     0     0
SMALL
No Charge or Current Charge


@<TRIPOS>ATOM
      1 C1          -4.8340     2.9800     0.0350 ca         1 4LB      -0.111000
      2 C2          -5.8920     2.3730    -0.6600 ca         1 4LB      -0.106000
      3 C3          -5.9110     0.9780    -0.8240 ca         1 4LB      -0.107000
      4 C9          -0.6080    -1.0150     0.2900 c          1 4LB       0.640100
      5 C12          1.4740    -1.8300    -0.8540 c3         1 4LB       0.114000
      6 C13          2.6970    -0.8720    -0.7470 c6         1 4LB      -0.079700
      7 C15          4.0250    -1.6560    -0.9410 c6         1 4LB      -0.072400
      8 C16          5.2590    -0.7230    -0.8580 c6         1 4LB      -0.053400
      9 C19          3.9630     0.8500     0.6800 c6         1 4LB      -0.053400
     10 C20          2.7280    -0.0810     0.5930 c6         1 4LB      -0.072400
     11 C21          6.5360     0.9710     0.6050 c          1 4LB       0.720000
     12 C4          -4.8760     0.1870    -0.2940 ca         1 4LB       0.117000
     13 C5          -3.8100     0.7910     0.4100 ca         1 4LB      -0.075300
     14 C6          -3.7970     2.1930     0.5670 ca         1 4LB      -0.077000
     15 O8          -1.7030    -0.2780    -0.0370 os         1 4LB      -0.473100
     16 O10         -0.3760    -1.5010     1.3850 o          1 4LB      -0.552000
     17 N11          0.1850    -1.1350    -0.8150 ns         1 4LB      -0.489900
     18 C17          5.2880     0.0610     0.4840 c6         1 4LB      -0.189700
     19 O22          7.3280     0.7410     1.5080 o          1 4LB      -0.736500
     20 O23          6.6790     1.8780    -0.2030 o          1 4LB      -0.736500
     21 Cl1         -4.9460    -1.5600    -0.5330 cl         1 4LB      -0.212000
     22 H1          -4.8150     4.0600     0.1610 ha         1 4LB       0.118000
     23 H2          -6.6940     2.9810    -1.0730 ha         1 4LB       0.114000
     24 H3          -6.7290     0.5070    -1.3650 ha         1 4LB       0.124000
     25 H4          -2.2170     0.5060     1.8350 h1         1 4LB       0.065700
     26 H5          -3.0650    -0.9840     1.3960 h1         1 4LB       0.065700
     27 H6           1.5350    -2.3770    -1.8040 h1         1 4LB       0.048200
     28 H7           1.5190    -2.5670    -0.0410 h1         1 4LB       0.048200
     29 H8           2.5990    -0.1540    -1.5740 hc         1 4LB       0.040700
     30 H9           4.1090    -2.4430    -0.1790 hc         1 4LB       0.022700
     31 H10          4.0200    -2.1660    -1.9140 hc         1 4LB       0.022700
     32 H11          6.1780    -1.3170    -0.9620 hc         1 4LB       0.042950
     33 H12          5.2450    -0.0210    -1.7040 hc         1 4LB       0.042950
     34 H13          3.8800     1.6390    -0.0800 hc         1 4LB       0.042950
     35 H14          3.9730     1.3580     1.6540 hc         1 4LB       0.042950
     36 H15          1.8180     0.5250     0.6990 hc         1 4LB       0.022700
     37 H16          2.7350    -0.7820     1.4400 hc         1 4LB       0.022700
     38 H17         -2.9800     2.6750     1.1010 ha         1 4LB       0.137000
     39 H18         -0.1510    -0.6750    -1.6510 hn         1 4LB       0.325500
     40 H19          5.3550    -0.6780     1.2960 hc         1 4LB       0.026700
     41 C7          -2.6730    -0.0390     0.9970 c3         1 4LB       0.230900
@<TRIPOS>BOND
     1     1     2 ar  
     2     1    14 ar  
     3     1    22 1   
     4     2     3 ar  
     5     2    23 1   
     6     3    12 ar  
     7     3    24 1   
     8     4    15 1   
     9     4    16 2   
    10     4    17 1   
    11     5     6 1   
    12     5    17 1   
    13     5    27 1   
    14     5    28 1   
    15     6     7 1   
    16     6    10 1   
    17     6    29 1   
    18     7     8 1   
    19     7    30 1   
    20     7    31 1   
    21     8    18 1   
    22     8    32 1   
    23     8    33 1   
    24     9    10 1   
    25     9    18 1   
    26     9    34 1   
    27     9    35 1   
    28    10    36 1   
    29    10    37 1   
    30    11    18 1   
    31    11    19 1   
    32    11    20 1   
    33    12    13 ar  
    34    12    21 1   
    35    13    14 ar  
    36    13    41 1   
    37    14    38 1   
    38    15    41 1   
    39    17    39 1   
    40    18    40 1   
    41    25    41 1   
    42    26    41 1   
@<TRIPOS>SUBSTRUCTURE
     1 4LB         1 TEMP              0 ****  ****    0 ROOT
