@<TRIPOS>MOLECULE
4LB
   41    42     1     0     0
SMALL
abcg2


@<TRIPOS>ATOM
      1 C1          -4.3670     2.7470    -0.5950 ca         1 4LB      -0.111000
      2 C2          -5.6970     2.6340    -0.2230 ca         1 4LB      -0.106000
      3 C3          -6.1690     1.4320     0.2840 ca         1 4LB      -0.107000
      4 C9          -0.8050    -1.3360    -0.1030 c          1 4LB       0.640100
      5 C12          1.5710    -1.6820    -0.6060 c3         1 4LB       0.114000
      6 C13          2.7870    -0.7630    -0.6120 c6         1 4LB      -0.079700
      7 C15          4.0700    -1.5900    -0.6290 c6         1 4LB      -0.072400
      8 C16          5.3120    -0.7070    -0.6270 c6         1 4LB      -0.053400
      9 C19          4.0400     1.0840     0.5730 c6         1 4LB      -0.053400
     10 C20          2.7990     0.1960     0.5760 c6         1 4LB      -0.072400
     11 C21          6.6140     1.1110     0.5840 c          1 4LB       0.720000
     12 C4          -5.2990     0.3620     0.4100 ca         1 4LB       0.117000
     13 C5          -3.9580     0.4460     0.0420 ca         1 4LB      -0.075300
     14 C6          -3.5090     1.6630    -0.4630 ca         1 4LB      -0.077000
     15 O8          -1.7840    -0.4380    -0.3070 os         1 4LB      -0.473100
     16 O10         -0.9620    -2.3670     0.5200 o          1 4LB      -0.552000
     17 N11          0.3370    -0.9290    -0.6710 ns         1 4LB      -0.489900
     18 C17          5.3240     0.2630     0.5560 c6         1 4LB      -0.189700
     19 O22          7.6870     0.4920     0.4210 o          1 4LB      -0.736500
     20 O23          6.5030     2.3380     0.7800 o          1 4LB      -0.736500
     21 CL1         -5.9130    -1.1300     1.0550 cl         1 4LB      -0.212000
     22 H1          -3.9890     3.6810    -0.9880 ha         1 4LB       0.118000
     23 H2          -6.3720     3.4730    -0.3240 ha         1 4LB       0.114000
     24 H3          -7.2050     1.3280     0.5790 ha         1 4LB       0.124000
     25 H4          -2.9970    -1.0140     1.2720 h1         1 4LB       0.065700
     26 H5          -3.4840    -1.6130    -0.3100 h1         1 4LB       0.065700
     27 H6           1.6370    -2.3820    -1.4460 h1         1 4LB       0.048200
     28 H7           1.5690    -2.2780     0.3080 h1         1 4LB       0.048200
     29 H8           2.7620    -0.1660    -1.5350 hc         1 4LB       0.040700
     30 H9           4.0860    -2.2400     0.2550 hc         1 4LB       0.022700
     31 H10          4.0800    -2.2520    -1.5010 hc         1 4LB       0.022700
     32 H11          6.2110    -1.3250    -0.6090 hc         1 4LB       0.042950
     33 H12          5.3440    -0.1350    -1.5630 hc         1 4LB       0.042950
     34 H13          4.0120     1.7360    -0.3070 hc         1 4LB       0.042950
     35 H14          4.0210     1.7430     1.4430 hc         1 4LB       0.042950
     36 H15          1.8990     0.8170     0.5740 hc         1 4LB       0.022700
     37 H16          2.7700    -0.3910     1.5030 hc         1 4LB       0.022700
     38 H17         -2.4750     1.7740    -0.7580 ha         1 4LB       0.137000
     39 H18          0.3260    -0.0820    -1.2190 hn         1 4LB       0.325500
     40 H19          5.3370    -0.3510     1.4710 hc         1 4LB       0.026700
     41 C7          -3.0620    -0.7490     0.2120 c3         1 4LB       0.230900
@<TRIPOS>BOND
     1     1     2 ar  
     2     1    14 ar  
     3     1    22 1   
     4     2     3 ar  
     5     2    23 1   
     6     3    12 ar  
     7     3    24 1   
     8     4    15 1   
     9     4    16 2   
    10     4    17 1   
    11     5     6 1   
    12     5    17 1   
    13     5    27 1   
    14     5    28 1   
    15     6     7 1   
    16     6    10 1   
    17     6    29 1   
    18     7     8 1   
    19     7    30 1   
    20     7    31 1   
    21     8    18 1   
    22     8    32 1   
    23     8    33 1   
    24     9    10 1   
    25     9    18 1   
    26     9    34 1   
    27     9    35 1   
    28    10    36 1   
    29    10    37 1   
    30    11    18 1   
    31    11    19 1   
    32    11    20 1   
    33    12    13 ar  
    34    12    21 1   
    35    13    14 ar  
    36    13    41 1   
    37    14    38 1   
    38    15    41 1   
    39    17    39 1   
    40    18    40 1   
    41    25    41 1   
    42    26    41 1   
@<TRIPOS>SUBSTRUCTURE
     1 4LB         1 TEMP              0 ****  ****    0 ROOT
