@<TRIPOS>MOLECULE
4LC
   62    67     1     0     0
SMALL
No Charge or Current Charge


@<TRIPOS>ATOM
      1 C13        -11.1170   -10.1490    29.7980 ca         1 4LC      -0.129600
      2 C17        -10.9510    -8.7210    29.3250 c          1 4LC       0.624700
      3 C20        -13.0590    -7.9230    30.5340 c6         1 4LC       0.071000
      4 C01        -10.3020   -13.8030    27.4110 c3         1 4LC       0.064900
      5 N05        -11.0990   -13.7070    28.6490 na         1 4LC      -0.178600
      6 C06        -11.3500   -14.7140    29.6030 cc         1 4LC       0.518100
      7 N07        -11.4370   -14.1890    30.8440 nd         1 4LC      -0.579100
      8 C08        -11.3360   -12.8200    30.6420 ca         1 4LC       0.085400
      9 C09        -11.3930   -11.8040    31.6050 ca         1 4LC      -0.059000
     10 C11        -11.2730   -10.4640    31.1780 ca         1 4LC      -0.116000
     11 C14        -11.0300   -11.2030    28.8580 ca         1 4LC      -0.064000
     12 C16        -11.1530   -12.5210    29.3250 ca         1 4LC      -0.090200
     13 O18        -10.0970    -8.4530    28.4880 o          1 4LC      -0.599100
     14 N19        -11.6880    -7.6990    29.9740 n          1 4LC      -0.399800
     15 C23        -13.3370    -7.0120    31.7600 c6         1 4LC       0.134600
     16 O26        -13.0230    -5.6320    31.4560 os         1 4LC      -0.458000
     17 C27        -11.6510    -5.4180    31.0380 c6         1 4LC       0.202600
     18 C29        -11.3820    -6.2450    29.7360 c6         1 4LC       0.080700
     19 C31        -12.2060    -5.6130    28.5590 c3         1 4LC       0.149600
     20 O34        -12.0000    -6.2660    27.2970 oh         1 4LC      -0.653000
     21 C36        -10.7080    -5.6770    32.2390 ca         1 4LC      -0.119300
     22 C37        -10.9420    -4.9700    33.4380 ca         1 4LC      -0.096000
     23 C39        -10.1190    -5.1650    34.5610 ca         1 4LC      -0.115000
     24 C41         -9.0470    -6.0680    34.4990 ca         1 4LC      -0.105000
     25 C43         -8.7980    -6.7740    33.3110 ca         1 4LC      -0.115000
     26 C45         -9.6190    -6.5800    32.1860 ca         1 4LC      -0.096000
     27 C47        -11.4400   -16.1270    29.2970 cc         1 4LC      -0.204800
     28 C48        -11.3780   -17.0730    30.3190 cd         1 4LC      -0.083100
     29 N50        -11.4140   -18.3700    29.7600 na         1 4LC      -0.218700
     30 C52        -11.5860   -18.1960    28.3980 ca         1 4LC      -0.064200
     31 C53        -11.7630   -19.2040    27.4390 ca         1 4LC      -0.075000
     32 C55        -12.0190   -18.8240    26.1040 ca         1 4LC      -0.008000
     33 C56        -12.1270   -17.4520    25.7720 ca         1 4LC      -0.096000
     34 C58        -11.9540   -16.4610    26.7600 ca         1 4LC      -0.074000
     35 C60        -11.6370   -16.8660    28.0680 ca         1 4LC      -0.056800
     36 C61        -12.2080   -19.8290    25.0930 cg         1 4LC       0.324000
     37 N62        -12.3710   -20.6440    24.2720 n1         1 4LC      -0.452000
     38 H2         -13.2240    -8.9680    30.8180 h1         1 4LC       0.061700
     39 H3          -9.4480   -13.1170    27.4680 h1         1 4LC       0.055367
     40 H4          -9.9120   -14.8200    27.2850 h1         1 4LC       0.055367
     41 H5         -10.9190   -13.5260    26.5480 h1         1 4LC       0.055367
     42 H6         -11.5200   -12.0460    32.6570 ha         1 4LC       0.131000
     43 H7         -11.2870    -9.6710    31.9230 ha         1 4LC       0.121000
     44 H8         -10.8800   -10.9960    27.8000 ha         1 4LC       0.132000
     45 H9         -14.3960    -7.0850    32.0450 h1         1 4LC       0.058200
     46 H10        -12.7350    -7.3450    32.6170 h1         1 4LC       0.058200
     47 H11        -11.5460    -4.3530    30.7850 h1         1 4LC       0.081700
     48 H12        -10.3210    -6.1270    29.4750 h1         1 4LC       0.104700
     49 H13        -11.9230    -4.5560    28.4750 h1         1 4LC       0.030700
     50 H14        -13.2730    -5.6390    28.8190 h1         1 4LC       0.030700
     51 H15        -12.5620    -5.8030    26.6370 ho         1 4LC       0.441000
     52 H16        -11.7700    -4.2670    33.5010 ha         1 4LC       0.126000
     53 H17        -10.3140    -4.6150    35.4790 ha         1 4LC       0.115000
     54 H18         -8.4100    -6.2200    35.3670 ha         1 4LC       0.113000
     55 H19         -7.9660    -7.4720    33.2600 ha         1 4LC       0.115000
     56 H20         -9.3920    -7.1410    31.2840 ha         1 4LC       0.126000
     57 H21        -11.2620   -16.9160    31.3900 h4         1 4LC       0.233000
     58 H22        -11.3580   -19.2510    30.2620 hn         1 4LC       0.361000
     59 H23        -11.7170   -20.2540    27.7230 ha         1 4LC       0.129000
     60 H24        -12.3650   -17.1540    24.7520 ha         1 4LC       0.127000
     61 H25        -12.1070   -15.4190    26.5040 ha         1 4LC       0.126000
     62 H1         -13.7990    -7.6990    29.7530 h1         1 4LC       0.061700
@<TRIPOS>BOND
     1     1     2 1   
     2     1    10 ar  
     3     1    11 ar  
     4     2    13 2   
     5     2    14 1   
     6     3    14 1   
     7     3    15 1   
     8     3    38 1   
     9     3    62 1   
    10     4     5 1   
    11     4    39 1   
    12     4    40 1   
    13     4    41 1   
    14     5     6 1   
    15     5    12 1   
    16     6     7 2   
    17     6    27 1   
    18     7     8 1   
    19     8     9 ar  
    20     8    12 ar  
    21     9    10 ar  
    22     9    42 1   
    23    10    43 1   
    24    11    12 ar  
    25    11    44 1   
    26    14    18 1   
    27    15    16 1   
    28    15    45 1   
    29    15    46 1   
    30    16    17 1   
    31    17    18 1   
    32    17    21 1   
    33    17    47 1   
    34    18    19 1   
    35    18    48 1   
    36    19    20 1   
    37    19    49 1   
    38    19    50 1   
    39    20    51 1   
    40    21    22 ar  
    41    21    26 ar  
    42    22    23 ar  
    43    22    52 1   
    44    23    24 ar  
    45    23    53 1   
    46    24    25 ar  
    47    24    54 1   
    48    25    26 ar  
    49    25    55 1   
    50    26    56 1   
    51    27    28 2   
    52    27    35 1   
    53    28    29 1   
    54    28    57 1   
    55    29    30 1   
    56    29    58 1   
    57    30    31 ar  
    58    30    35 ar  
    59    31    32 ar  
    60    31    59 1   
    61    32    33 ar  
    62    32    36 1   
    63    33    34 ar  
    64    33    60 1   
    65    34    35 ar  
    66    34    61 1   
    67    36    37 3   
@<TRIPOS>SUBSTRUCTURE
     1 4LC         1 TEMP              0 ****  ****    0 ROOT
