@<TRIPOS>MOLECULE
4LC
   62    67     1     0     0
SMALL
abcg2


@<TRIPOS>ATOM
      1 C13        -10.7770   -10.1020    30.0070 ca         1 4LC      -0.129600
      2 C17        -10.5110    -8.6760    29.6330 c          1 4LC       0.624700
      3 C20        -12.9060    -8.1100    30.0910 c6         1 4LC       0.071000
      4 C01        -10.2660   -13.7350    27.3900 c3         1 4LC       0.064900
      5 N05        -10.7300   -13.5990    28.7600 na         1 4LC      -0.178600
      6 C06        -11.0140   -14.5970    29.6680 cc         1 4LC       0.518100
      7 N07        -11.2530   -14.1220    30.8810 nd         1 4LC      -0.579100
      8 C08        -11.1260   -12.7510    30.7760 ca         1 4LC       0.085400
      9 C09        -11.2700   -11.7490    31.7370 ca         1 4LC      -0.059000
     10 C11        -11.1020   -10.4330    31.3370 ca         1 4LC      -0.116000
     11 C14        -10.6070   -11.0900    29.0420 ca         1 4LC      -0.064000
     12 C16        -10.8030   -12.4040    29.4460 ca         1 4LC      -0.090200
     13 O18         -9.3920    -8.3500    29.2240 o          1 4LC      -0.599100
     14 N19        -11.5110    -7.7800    29.8060 n          1 4LC      -0.399800
     15 C23        -13.3740    -7.3290    31.3080 c6         1 4LC       0.134600
     16 O26        -13.1430    -5.9300    31.1360 os         1 4LC      -0.458000
     17 C27        -11.7580    -5.6180    30.9110 c6         1 4LC       0.202600
     18 C29        -11.2550    -6.3460    29.6550 c6         1 4LC       0.080700
     19 C31        -11.9120    -5.7580    28.4090 c3         1 4LC       0.149600
     20 O34        -11.4880    -6.5000    27.2690 oh         1 4LC      -0.653000
     21 C36        -10.9390    -5.8530    32.1730 ca         1 4LC      -0.119300
     22 C37        -11.4430    -5.3510    33.3770 ca         1 4LC      -0.096000
     23 C39        -10.7450    -5.5130    34.5660 ca         1 4LC      -0.115000
     24 C41         -9.5240    -6.1820    34.5740 ca         1 4LC      -0.105000
     25 C43         -9.0120    -6.6800    33.3830 ca         1 4LC      -0.115000
     26 C45         -9.7150    -6.5180    32.1910 ca         1 4LC      -0.096000
     27 C47        -11.0450   -16.0070    29.3200 cc         1 4LC      -0.204800
     28 C48        -10.4510   -17.0130    30.0560 cd         1 4LC      -0.083100
     29 N50        -10.7000   -18.2200    29.4770 na         1 4LC      -0.218700
     30 C52        -11.4690   -18.0410    28.3510 ca         1 4LC      -0.064200
     31 C53        -11.9730   -18.9740    27.4590 ca         1 4LC      -0.075000
     32 C55        -12.7570   -18.4890    26.4120 ca         1 4LC      -0.008000
     33 C56        -13.0390   -17.1090    26.2740 ca         1 4LC      -0.096000
     34 C58        -12.5280   -16.1940    27.1710 ca         1 4LC      -0.074000
     35 C60        -11.7150   -16.6460    28.2200 ca         1 4LC      -0.056800
     36 C61        -13.2910   -19.4060    25.4610 cg         1 4LC       0.324000
     37 N62        -13.7230   -20.1460    24.6870 n1         1 4LC      -0.452000
     38 H2         -13.0110    -9.1760    30.2620 h1         1 4LC       0.061700
     39 H3          -9.3840   -13.1110    27.2480 h1         1 4LC       0.055367
     40 H4         -10.0010   -14.7700    27.2010 h1         1 4LC       0.055367
     41 H5         -11.0370   -13.4250    26.6840 h1         1 4LC       0.055367
     42 H6         -11.5070   -11.9940    32.7650 ha         1 4LC       0.131000
     43 H7         -11.2110    -9.6370    32.0630 ha         1 4LC       0.121000
     44 H8         -10.3430   -10.8330    28.0250 ha         1 4LC       0.132000
     45 H9         -14.4480    -7.4470    31.4450 h1         1 4LC       0.058200
     46 H10        -12.8600    -7.6880    32.2050 h1         1 4LC       0.058200
     47 H11        -11.7590    -4.5470    30.6990 h1         1 4LC       0.081700
     48 H12        -10.1810    -6.2200    29.5560 h1         1 4LC       0.104700
     49 H13        -11.5990    -4.7110    28.3320 h1         1 4LC       0.030700
     50 H14        -13.0010    -5.7790    28.4970 h1         1 4LC       0.030700
     51 H15        -12.0030    -6.2060    26.5090 ho         1 4LC       0.441000
     52 H16        -12.3950    -4.8370    33.3780 ha         1 4LC       0.126000
     53 H17        -11.1530    -5.1150    35.4880 ha         1 4LC       0.115000
     54 H18         -8.9780    -6.3110    35.5000 ha         1 4LC       0.113000
     55 H19         -8.0640    -7.2040    33.3750 ha         1 4LC       0.115000
     56 H20         -9.2920    -6.9200    31.2820 ha         1 4LC       0.126000
     57 H21         -9.8580   -16.9380    30.9520 h4         1 4LC       0.233000
     58 H22        -10.3550   -19.1050    29.8140 hn         1 4LC       0.361000
     59 H23        -11.7730   -20.0320    27.5660 ha         1 4LC       0.129000
     60 H24        -13.6640   -16.7800    25.4560 ha         1 4LC       0.127000
     61 H25        -12.7600   -15.1440    27.0610 ha         1 4LC       0.126000
     62 H1         -13.5160    -7.8470    29.2240 h1         1 4LC       0.061700
@<TRIPOS>BOND
     1     1     2 1   
     2     1    10 ar  
     3     1    11 ar  
     4     2    13 2   
     5     2    14 1   
     6     3    14 1   
     7     3    15 1   
     8     3    38 1   
     9     3    62 1   
    10     4     5 1   
    11     4    39 1   
    12     4    40 1   
    13     4    41 1   
    14     5     6 1   
    15     5    12 1   
    16     6     7 2   
    17     6    27 1   
    18     7     8 1   
    19     8     9 ar  
    20     8    12 ar  
    21     9    10 ar  
    22     9    42 1   
    23    10    43 1   
    24    11    12 ar  
    25    11    44 1   
    26    14    18 1   
    27    15    16 1   
    28    15    45 1   
    29    15    46 1   
    30    16    17 1   
    31    17    18 1   
    32    17    21 1   
    33    17    47 1   
    34    18    19 1   
    35    18    48 1   
    36    19    20 1   
    37    19    49 1   
    38    19    50 1   
    39    20    51 1   
    40    21    22 ar  
    41    21    26 ar  
    42    22    23 ar  
    43    22    52 1   
    44    23    24 ar  
    45    23    53 1   
    46    24    25 ar  
    47    24    54 1   
    48    25    26 ar  
    49    25    55 1   
    50    26    56 1   
    51    27    28 2   
    52    27    35 1   
    53    28    29 1   
    54    28    57 1   
    55    29    30 1   
    56    29    58 1   
    57    30    31 ar  
    58    30    35 ar  
    59    31    32 ar  
    60    31    59 1   
    61    32    33 ar  
    62    32    36 1   
    63    33    34 ar  
    64    33    60 1   
    65    34    35 ar  
    66    34    61 1   
    67    36    37 3   
@<TRIPOS>SUBSTRUCTURE
     1 4LC         1 TEMP              0 ****  ****    0 ROOT
