@<TRIPOS>MOLECULE
4LD
   54    59     1     0     0
SMALL
abcg2


@<TRIPOS>ATOM
      1 C8           1.2220     2.7700     1.1860 c3         1 4LD       0.141900
      2 C9           0.1430     0.3410     0.3410 ca         1 4LD      -0.144000
      3 C10         -0.3320    -0.8970    -0.0980 cp         1 4LD      -0.025000
      4 C13         -1.6450    -1.4790    -0.2440 cp         1 4LD      -0.145000
      5 C14         -2.9570    -1.0500    -0.0150 ca         1 4LD       0.512500
      6 C3           4.7180    -0.1700    -1.0860 cc         1 4LD       0.196300
      7 C2           4.7050     0.1150     1.0840 cd         1 4LD       0.306300
      8 C16         -3.9880     0.6500     1.5600 cc         1 4LD      -0.092300
      9 N1           5.9390     0.2650     0.7060 nc         1 4LD      -0.373300
     10 O1           5.9530     0.0930    -0.6500 os         1 4LD      -0.077700
     11 C15         -3.2680     0.3120     0.4270 cd         1 4LD      -0.270500
     12 C12         -1.4440    -2.8000    -0.7030 ca         1 4LD       0.030800
     13 C4           4.5270    -0.3830    -2.5380 c3         1 4LD      -0.136400
     14 C5           3.8620    -0.1680    -0.0320 cd         1 4LD      -0.165000
     15 C6           2.4200    -0.4360    -0.0450 ca         1 4LD      -0.007000
     16 C11          0.5790    -1.8880    -0.4960 ca         1 4LD      -0.051200
     17 C7           1.5090     0.5680     0.3570 ca         1 4LD       0.124100
     18 N3          -4.0580     1.9880     1.5540 na         1 4LD      -0.004200
     19 O2           2.0690     1.7390     0.7270 os         1 4LD      -0.336100
     20 C17         -4.6040    -0.1920     2.6170 c3         1 4LD      -0.031800
     21 C18         -2.9720     1.5470    -0.1980 cd         1 4LD       0.313300
     22 C19         -2.2810     1.7640    -1.4820 cx         1 4LD      -0.169000
     23 C20         -1.5200     3.0350    -1.7290 cx         1 4LD      -0.118400
     24 C21         -2.8010     2.7910    -2.4540 cx         1 4LD      -0.118400
     25 C22         -3.7650    -3.1280    -0.5920 ca         1 4LD       0.366900
     26 C23         -2.5260    -3.6550    -0.8910 ca         1 4LD      -0.209000
     27 C24          1.9490    -1.6680    -0.4710 ca         1 4LD      -0.097000
     28 N4          -3.4590     2.5530     0.5060 nc         1 4LD      -0.534800
     29 N5          -3.9860    -1.8770    -0.1750 nb         1 4LD      -0.702000
     30 N2          -0.1160    -3.0200    -0.8600 na         1 4LD      -0.225600
     31 H8           0.5190     3.0970     0.4130 h1         1 4LD       0.042367
     32 H7           0.6550     2.4700     2.0710 h1         1 4LD       0.042367
     33 H9           1.8650     3.6070     1.4480 h1         1 4LD       0.042367
     34 H10         -0.5550     1.1060     0.6480 ha         1 4LD       0.139000
     35 H4           4.8560     0.4840    -3.1110 hc         1 4LD       0.062033
     36 H5           5.0910    -1.2480    -2.8880 hc         1 4LD       0.062033
     37 H6           3.4750    -0.5550    -2.7520 hc         1 4LD       0.062033
     38 H15         -4.4930     2.5710     2.2520 hn         1 4LD       0.370000
     39 H3           3.8330    -0.7150     2.8390 hc         1 4LD       0.057367
     40 H1           5.2020     0.3590     3.1440 hc         1 4LD       0.057367
     41 H2           3.6280     1.0230     2.6850 hc         1 4LD       0.057367
     42 H14         -5.5870    -0.5500     2.3090 hc         1 4LD       0.055700
     43 H13         -3.9900    -1.0670     2.8220 hc         1 4LD       0.055700
     44 H12         -4.7260     0.3620     3.5470 hc         1 4LD       0.055700
     45 H16         -1.8650     0.8660    -1.9220 hc         1 4LD       0.093700
     46 H17         -1.5220     3.7720    -0.9360 hc         1 4LD       0.074700
     47 H18         -0.5920     2.9670    -2.2810 hc         1 4LD       0.074700
     48 H20         -2.7590     2.5500    -3.5080 hc         1 4LD       0.074700
     49 H19         -3.6730     3.3580    -2.1530 hc         1 4LD       0.074700
     50 H21         -4.6460    -3.7510    -0.7000 h4         1 4LD       0.016100
     51 H22         -2.4130    -4.6740    -1.2350 ha         1 4LD       0.126000
     52 H23          2.6470    -2.4430    -0.7650 ha         1 4LD       0.122000
     53 H11          0.2990    -3.8830    -1.1700 hn         1 4LD       0.356000
     54 C1           4.3250     0.2030     2.5180 c3         1 4LD      -0.132400
@<TRIPOS>BOND
     1     1    19 1   
     2     1    31 1   
     3     1    32 1   
     4     1    33 1   
     5     2     3 ar  
     6     2    17 ar  
     7     2    34 1   
     8     3     4 1   
     9     3    16 ar  
    10     4     5 ar  
    11     4    12 ar  
    12     5    11 1   
    13     5    29 ar  
    14     6    10 1   
    15     6    13 1   
    16     6    14 2   
    17     7     9 2   
    18     7    14 1   
    19     7    54 1   
    20     8    11 2   
    21     8    18 1   
    22     8    20 1   
    23     9    10 1   
    24    11    21 1   
    25    12    26 ar  
    26    12    30 1   
    27    13    35 1   
    28    13    36 1   
    29    13    37 1   
    30    14    15 1   
    31    15    17 ar  
    32    15    27 ar  
    33    16    27 ar  
    34    16    30 1   
    35    17    19 1   
    36    18    28 1   
    37    18    38 1   
    38    20    42 1   
    39    20    43 1   
    40    20    44 1   
    41    21    22 1   
    42    21    28 2   
    43    22    23 1   
    44    22    24 1   
    45    22    45 1   
    46    23    24 1   
    47    23    46 1   
    48    23    47 1   
    49    24    48 1   
    50    24    49 1   
    51    25    26 ar  
    52    25    29 ar  
    53    25    50 1   
    54    26    51 1   
    55    27    52 1   
    56    30    53 1   
    57    39    54 1   
    58    40    54 1   
    59    41    54 1   
@<TRIPOS>SUBSTRUCTURE
     1 4LD         1 TEMP              0 ****  ****    0 ROOT
