@<TRIPOS>MOLECULE
4LD
   54    59     1     0     0
SMALL
No Charge or Current Charge


@<TRIPOS>ATOM
      1 C8           1.1090     2.7670     1.6410 c3         1 4LD       0.141900
      2 C9           0.1100     0.3210     0.4650 ca         1 4LD      -0.144000
      3 C10         -0.3320    -0.8660    -0.1460 cp         1 4LD      -0.025000
      4 C13         -1.6560    -1.4780    -0.2730 cp         1 4LD      -0.145000
      5 C14         -2.9600    -1.0670     0.0950 ca         1 4LD       0.512500
      6 C3           4.7770    -0.3040    -1.1550 cc         1 4LD       0.196300
      7 C2           4.7120     0.4410     0.9150 cd         1 4LD       0.306300
      8 C16         -4.0750     0.6100     1.6360 cc         1 4LD      -0.092300
      9 N1           5.9950     0.4800     0.6030 nc         1 4LD      -0.373300
     10 O1           6.0480     0.0200    -0.7530 os         1 4LD      -0.077700
     11 C15         -3.2990     0.2840     0.5540 cd         1 4LD      -0.270500
     12 C12         -1.4880    -2.7250    -0.8580 ca         1 4LD       0.030800
     13 C4           4.5860    -0.8360    -2.5490 c3         1 4LD      -0.136400
     14 C5           3.8890     0.0180    -0.1650 cd         1 4LD      -0.165000
     15 C6           2.4340    -0.2680    -0.1520 ca         1 4LD      -0.007000
     16 C11          0.5980    -1.7300    -0.7130 ca         1 4LD      -0.051200
     17 C7           1.4960     0.6300     0.4500 ca         1 4LD       0.124100
     18 N3          -4.1530     2.0000     1.5890 na         1 4LD      -0.004200
     19 O2           1.9590     1.8310     0.9550 os         1 4LD      -0.336100
     20 C17         -4.7060    -0.2600     2.6910 c3         1 4LD      -0.031800
     21 C18         -3.0240     1.4960    -0.1230 cd         1 4LD       0.313300
     22 C19         -2.3200     1.6000    -1.4400 cx         1 4LD      -0.169000
     23 C20         -1.2590     2.6530    -1.6840 cx         1 4LD      -0.118400
     24 C21         -2.5830     2.7370    -2.4070 cx         1 4LD      -0.118400
     25 C22         -3.8230    -3.1190    -0.6510 ca         1 4LD       0.366900
     26 C23         -2.5600    -3.5860    -1.0650 ca         1 4LD      -0.209000
     27 C24          1.9670    -1.4670    -0.7450 ca         1 4LD      -0.097000
     28 N4          -3.5130     2.5560     0.4950 nc         1 4LD      -0.534800
     29 N5          -4.0260    -1.8920    -0.0990 nb         1 4LD      -0.702000
     30 N2          -0.1240    -2.8540    -1.1420 na         1 4LD      -0.225600
     31 H8           0.3130     3.1320     0.9810 h1         1 4LD       0.042367
     32 H7           0.6500     2.3030     2.5240 h1         1 4LD       0.042367
     33 H9           1.6930     3.6330     1.9780 h1         1 4LD       0.042367
     34 H10         -0.6120     0.9790     0.9340 ha         1 4LD       0.139000
     35 H4           5.3550    -0.4430    -3.2240 hc         1 4LD       0.062033
     36 H5           4.6530    -1.9300    -2.5610 hc         1 4LD       0.062033
     37 H6           3.6090    -0.5450    -2.9510 hc         1 4LD       0.062033
     38 H15         -4.6410     2.5880     2.2640 hn         1 4LD       0.370000
     39 H3           3.3860     0.2060     2.6050 hc         1 4LD       0.057367
     40 H1           5.0830     0.4040     3.0430 hc         1 4LD       0.057367
     41 H2           4.1540     1.8040     2.4900 hc         1 4LD       0.057367
     42 H14         -5.6430    -0.6960     2.3260 hc         1 4LD       0.055700
     43 H13         -4.0370    -1.0830     2.9700 hc         1 4LD       0.055700
     44 H12         -4.9300     0.3120     3.5990 hc         1 4LD       0.055700
     45 H16         -2.1500     0.6340    -1.9050 hc         1 4LD       0.093700
     46 H17         -1.0690     3.3840    -0.9030 hc         1 4LD       0.074700
     47 H18         -0.3810     2.3600    -2.2560 hc         1 4LD       0.074700
     48 H20         -2.5950     2.5050    -3.4690 hc         1 4LD       0.074700
     49 H19         -3.2730     3.5230    -2.1080 hc         1 4LD       0.074700
     50 H21         -4.7080    -3.7410    -0.7800 h4         1 4LD       0.016100
     51 H22         -2.4390    -4.5660    -1.5160 ha         1 4LD       0.126000
     52 H23          2.6500    -2.1940    -1.1740 ha         1 4LD       0.122000
     53 H11          0.2900    -3.6630    -1.5920 hn         1 4LD       0.356000
     54 C1           4.3100     0.7300     2.3380 c3         1 4LD      -0.132400
@<TRIPOS>BOND
     1     1    19 1   
     2     1    31 1   
     3     1    32 1   
     4     1    33 1   
     5     2     3 ar  
     6     2    17 ar  
     7     2    34 1   
     8     3     4 1   
     9     3    16 ar  
    10     4     5 ar  
    11     4    12 ar  
    12     5    11 1   
    13     5    29 ar  
    14     6    10 1   
    15     6    13 1   
    16     6    14 2   
    17     7     9 2   
    18     7    14 1   
    19     7    54 1   
    20     8    11 2   
    21     8    18 1   
    22     8    20 1   
    23     9    10 1   
    24    11    21 1   
    25    12    26 ar  
    26    12    30 1   
    27    13    35 1   
    28    13    36 1   
    29    13    37 1   
    30    14    15 1   
    31    15    17 ar  
    32    15    27 ar  
    33    16    27 ar  
    34    16    30 1   
    35    17    19 1   
    36    18    28 1   
    37    18    38 1   
    38    20    42 1   
    39    20    43 1   
    40    20    44 1   
    41    21    22 1   
    42    21    28 2   
    43    22    23 1   
    44    22    24 1   
    45    22    45 1   
    46    23    24 1   
    47    23    46 1   
    48    23    47 1   
    49    24    48 1   
    50    24    49 1   
    51    25    26 ar  
    52    25    29 ar  
    53    25    50 1   
    54    26    51 1   
    55    27    52 1   
    56    30    53 1   
    57    39    54 1   
    58    40    54 1   
    59    41    54 1   
@<TRIPOS>SUBSTRUCTURE
     1 4LD         1 TEMP              0 ****  ****    0 ROOT
