@<TRIPOS>MOLECULE
4LE
   12    11     1     0     0
SMALL
abcg2


@<TRIPOS>ATOM
      1 C01          1.4790     0.3220    -0.0130 c3         1 4LE       0.315000
      2 C02          0.0480    -0.1700    -0.2160 c3         1 4LE       0.272300
      3 O01         -0.7250     0.4540     0.7490 os         1 4LE      -0.461000
      4 C03         -2.0090     0.7900     0.4340 c3         1 4LE       0.387300
      5 F01          1.9190     0.0570     1.2130 f          1 4LE      -0.095667
      6 F02          2.3010    -0.2560    -0.8850 f          1 4LE      -0.095667
      7 F03          1.5370     1.6390    -0.1970 f          1 4LE      -0.095667
      8 CL1          0.0260    -1.9390    -0.0040 cl         1 4LE      -0.217000
      9 F04         -2.0330     1.6810    -0.5800 f          1 4LE      -0.122500
     10 F05         -2.6960    -0.2860     0.0010 f          1 4LE      -0.122500
     11 H1          -0.2630     0.0390    -1.2430 h2         1 4LE       0.112700
     12 H2          -2.4770     1.2120     1.3200 h3         1 4LE       0.121700
@<TRIPOS>BOND
     1     1     2 1   
     2     1     5 1   
     3     1     6 1   
     4     1     7 1   
     5     2     3 1   
     6     2     8 1   
     7     2    11 1   
     8     3     4 1   
     9     4     9 1   
    10     4    10 1   
    11     4    12 1   
@<TRIPOS>SUBSTRUCTURE
     1 4LE         1 TEMP              0 ****  ****    0 ROOT
