@<TRIPOS>MOLECULE
4LE
   12    11     1     0     0
SMALL
No Charge or Current Charge


@<TRIPOS>ATOM
      1 C01          1.5900     0.3040    -0.0000 c3         1 4LE       0.315000
      2 C02          0.1010    -0.0820    -0.2350 c3         1 4LE       0.272300
      3 O01         -0.7140     0.6050     0.7500 os         1 4LE      -0.461000
      4 C03         -2.1160     0.7710     0.4390 c3         1 4LE       0.387300
      5 F01          2.0110    -0.0660     1.2330 f          1 4LE      -0.095667
      6 F02          2.3940    -0.2950    -0.9100 f          1 4LE      -0.095667
      7 F03          1.7680     1.6410    -0.1160 f          1 4LE      -0.095667
      8 Cl1         -0.1150    -1.8920    -0.1320 cl         1 4LE      -0.217000
      9 F04         -2.2790     1.4220    -0.7360 f          1 4LE      -0.122500
     10 F05         -2.7470    -0.4200     0.3160 f          1 4LE      -0.122500
     11 H1          -0.1680     0.2110    -1.2570 h2         1 4LE       0.112700
     12 H2          -2.6160     1.3450     1.2260 h3         1 4LE       0.121700
@<TRIPOS>BOND
     1     1     2 1   
     2     1     5 1   
     3     1     6 1   
     4     1     7 1   
     5     2     3 1   
     6     2     8 1   
     7     2    11 1   
     8     3     4 1   
     9     4     9 1   
    10     4    10 1   
    11     4    12 1   
@<TRIPOS>SUBSTRUCTURE
     1 4LE         1 TEMP              0 ****  ****    0 ROOT
