@<TRIPOS>MOLECULE
4LF
   32    33     1     0     0
SMALL
bcc


@<TRIPOS>ATOM
      1 N3           0.0710    -0.5430     0.6390 ns         1 4LF      -0.577900
      2 C4          -5.5020     1.0120    -0.2850 cc         1 4LF      -0.184200
      3 C8          -2.0580    -0.3380    -0.5680 c3         1 4LF       0.086000
      4 C5          -5.7340    -0.2760    -0.0700 cd         1 4LF      -0.184200
      5 C6          -4.4350    -1.0070    -0.1500 c          1 4LF       0.693700
      6 O3          -4.2380    -2.1860    -0.0010 o          1 4LF      -0.546000
      7 C7          -4.0400     1.1960    -0.5170 c          1 4LF       0.693700
      8 O2          -3.4470     2.2210    -0.7370 o          1 4LF      -0.546000
      9 N2          -3.4700    -0.0600    -0.4340 n          1 4LF      -0.531400
     10 C9          -1.3310    -0.2420     0.7750 c3         1 4LF       0.085000
     11 C10          0.9910     0.3880     0.3190 c          1 4LF       0.687700
     12 O4           0.7100     1.5600     0.1220 o          1 4LF      -0.566100
     13 C11          2.3950    -0.1220     0.2570 ca         1 4LF      -0.168600
     14 C12          2.8920    -0.9370     1.2780 ca         1 4LF      -0.104000
     15 C13          4.2050    -1.3680     1.2560 ca         1 4LF      -0.138000
     16 C14          5.0380    -1.0010     0.2050 ca         1 4LF      -0.159000
     17 C15          4.5550    -0.2010    -0.8160 ca         1 4LF       0.033100
     18 O6           5.2870     0.1950    -1.8810 oh         1 4LF      -0.518100
     19 C16          3.2270     0.2520    -0.7950 ca         1 4LF       0.173100
     20 O5           2.7470     1.0120    -1.7940 oh         1 4LF      -0.469100
     21 H1           0.3530    -1.5080     0.6940 hn         1 4LF       0.317500
     22 H2          -6.2040     1.8320    -0.3010 ha         1 4LF       0.175500
     23 H4          -1.9420    -1.3360    -0.9890 h1         1 4LF       0.074200
     24 H5          -1.6340     0.3690    -1.2790 h1         1 4LF       0.074200
     25 H6          -6.6710    -0.7700     0.1350 ha         1 4LF       0.175500
     26 H8          -1.7650    -0.9470     1.4840 h1         1 4LF       0.063700
     27 H9          -1.4480     0.7580     1.1920 h1         1 4LF       0.063700
     28 H10          2.2500    -1.2140     2.1040 ha         1 4LF       0.139000
     29 H11          4.5900    -1.9860     2.0550 ha         1 4LF       0.138000
     30 H12          6.0660    -1.3420     0.1790 ha         1 4LF       0.134000
     31 H13          6.1910    -0.1350    -1.8230 ho         1 4LF       0.439000
     32 H14          3.4340     1.1720    -2.4510 ho         1 4LF       0.446000
@<TRIPOS>BOND
     1     1    10 1   
     2     1    11 1   
     3     1    21 1   
     4     2     4 2   
     5     2     7 1   
     6     2    22 1   
     7     3     9 1   
     8     3    10 1   
     9     3    23 1   
    10     3    24 1   
    11     4     5 1   
    12     4    25 1   
    13     5     6 2   
    14     5     9 1   
    15     7     8 2   
    16     7     9 1   
    17    10    26 1   
    18    10    27 1   
    19    11    12 2   
    20    11    13 1   
    21    13    14 ar  
    22    13    19 ar  
    23    14    15 ar  
    24    14    28 1   
    25    15    16 ar  
    26    15    29 1   
    27    16    17 ar  
    28    16    30 1   
    29    17    18 1   
    30    17    19 ar  
    31    18    31 1   
    32    19    20 1   
    33    20    32 1   
@<TRIPOS>SUBSTRUCTURE
     1 4LF         1 TEMP              0 ****  ****    0 ROOT
