@<TRIPOS>MOLECULE
4LF
   32    33     1     0     0
SMALL
No Charge or Current Charge


@<TRIPOS>ATOM
      1 N3           0.0570    -0.4080     0.7440 ns         1 4LF      -0.510900
      2 C4          -5.6160     0.9480    -0.3320 cc         1 4LF      -0.234200
      3 C8          -2.1480    -0.2810    -0.4500 c3         1 4LF       0.086000
      4 C5          -5.8060    -0.3870    -0.0460 cd         1 4LF      -0.234200
      5 C6          -4.5060    -1.0640    -0.0280 c          1 4LF       0.551200
      6 O3          -4.2590    -2.2420     0.1780 o          1 4LF      -0.470500
      7 C7          -4.1860     1.2020    -0.5130 c          1 4LF       0.551200
      8 O2          -3.6230     2.2510    -0.7860 o          1 4LF      -0.470500
      9 N2          -3.5980    -0.0430    -0.3010 n          1 4LF      -0.397400
     10 C9          -1.3760    -0.1090     0.8750 c3         1 4LF       0.085000
     11 C10          0.9760     0.3890     0.0900 c          1 4LF       0.620700
     12 O4           0.6320     1.4520    -0.4080 o          1 4LF      -0.566100
     13 C11          2.4070    -0.1180     0.0960 ca         1 4LF      -0.168600
     14 C12          2.8260    -1.0690     1.0630 ca         1 4LF      -0.086000
     15 C13          4.1490    -1.5440     1.0880 ca         1 4LF      -0.120000
     16 C14          5.0850    -1.0840     0.1510 ca         1 4LF      -0.141000
     17 C15          4.6950    -0.1450    -0.8140 ca         1 4LF       0.033100
     18 O6           5.6060     0.3020    -1.7380 oh         1 4LF      -0.557100
     19 C16          3.3670     0.3370    -0.8450 ca         1 4LF       0.173100
     20 O5           3.0570     1.2250    -1.8330 oh         1 4LF      -0.508100
     21 H1           0.4030    -1.2800     1.1250 hn         1 4LF       0.317500
     22 H2          -6.3570     1.7340    -0.4290 ha         1 4LF       0.225500
     23 H4          -1.9870    -1.2990    -0.8290 h1         1 4LF       0.074200
     24 H5          -1.7450     0.4130    -1.1990 h1         1 4LF       0.074200
     25 H6          -6.7310    -0.9230     0.1400 ha         1 4LF       0.225500
     26 H8          -1.8040    -0.7810     1.6300 h1         1 4LF       0.063700
     27 H9          -1.4950     0.9210     1.2350 h1         1 4LF       0.063700
     28 H10          2.1420    -1.4380     1.8240 ha         1 4LF       0.121000
     29 H11          4.4490    -2.2690     1.8420 ha         1 4LF       0.120000
     30 H12          6.1050    -1.4600     0.1810 ha         1 4LF       0.116000
     31 H13          6.4710    -0.1350    -1.5720 ho         1 4LF       0.478000
     32 H14          3.8930     1.3550    -2.3350 ho         1 4LF       0.485000
@<TRIPOS>BOND
     1     1    10 1   
     2     1    11 1   
     3     1    21 1   
     4     2     4 2   
     5     2     7 1   
     6     2    22 1   
     7     3     9 1   
     8     3    10 1   
     9     3    23 1   
    10     3    24 1   
    11     4     5 1   
    12     4    25 1   
    13     5     6 2   
    14     5     9 1   
    15     7     8 2   
    16     7     9 1   
    17    10    26 1   
    18    10    27 1   
    19    11    12 2   
    20    11    13 1   
    21    13    14 ar  
    22    13    19 ar  
    23    14    15 ar  
    24    14    28 1   
    25    15    16 ar  
    26    15    29 1   
    27    16    17 ar  
    28    16    30 1   
    29    17    18 1   
    30    17    19 ar  
    31    18    31 1   
    32    19    20 1   
    33    20    32 1   
@<TRIPOS>SUBSTRUCTURE
     1 4LF         1 TEMP              0 ****  ****    0 ROOT
