@<TRIPOS>MOLECULE
4LG
   80    84     1     0     0
SMALL
No Charge or Current Charge


@<TRIPOS>ATOM
      1 C1          -9.5080     2.9160    -0.7460 c3         1 4LG       0.149900
      2 O1          -8.9570     1.8050    -0.0160 os         1 4LG      -0.351100
      3 C2          -9.5840     0.5740     0.0510 ca         1 4LG       0.138100
      4 C3          -8.9680    -0.4660     0.7850 ca         1 4LG      -0.115300
      5 C4          -7.6370    -0.2570     1.5010 c3         1 4LG       0.218900
      6 O2          -6.6010    -0.8980     0.7370 os         1 4LG      -0.460000
      7 C5         -10.8200     0.3350    -0.5940 ca         1 4LG      -0.198000
      8 C6         -11.4330    -0.9260    -0.5080 ca         1 4LG      -0.073000
      9 C7         -10.8190    -1.9560     0.2190 ca         1 4LG      -0.149000
     10 C8          -9.5920    -1.7280     0.8630 ca         1 4LG      -0.053000
     11 C9           4.0140     0.8860    -1.5070 ca         1 4LG       0.158100
     12 C10          4.1250     2.0310    -0.6910 ca         1 4LG      -0.173000
     13 C11          3.8720     3.2840    -1.2680 ca         1 4LG       0.001800
     14 C12          3.5250     3.3980    -2.5850 ca         1 4LG      -0.125800
     15 C13          3.4030     2.2900    -3.4300 ca         1 4LG      -0.022000
     16 C14          3.6530     1.0160    -2.8770 ca         1 4LG      -0.215000
     17 N1           3.9090     4.5560    -0.7040 na         1 4LG      -0.090700
     18 C15          3.5790     5.5350    -1.6640 cc         1 4LG      -0.159100
     19 C16          3.3440     4.8080    -2.8240 cd         1 4LG      -0.216200
     20 C17          4.2590     4.7770     0.7120 c3         1 4LG       0.015600
     21 C18          5.7410     4.5360     1.0190 c          1 4LG       0.562100
     22 O3           5.9070     3.7400     2.1250 os         1 4LG      -0.447100
     23 O4           6.6640     4.9960     0.3570 o          1 4LG      -0.455000
     24 C19          7.2500     3.4140     2.5310 c3         1 4LG       0.152900
     25 C20          4.4620    -2.7730    -0.6970 c6         1 4LG       0.136700
     26 C21          5.9730    -2.7600    -0.3140 c6         1 4LG       0.139800
     27 N2           6.3140    -3.8540     0.6230 n7         1 4LG      -0.853400
     28 C22          5.5210    -3.7200     1.8840 c6         1 4LG       0.071800
     29 C23          3.9840    -3.5620     1.6610 c          1 4LG       0.578000
     30 N3           3.5400    -2.8780     0.4910 n          1 4LG      -0.227400
     31 C24          4.1490    -1.5760    -1.6500 c3         1 4LG       0.148600
     32 O6           4.2670    -0.3370    -0.9230 os         1 4LG      -0.347100
     33 C25          1.4270    -3.1770    -0.7710 ca         1 4LG      -0.061000
     34 C26          2.1410    -2.5700     0.2860 ca         1 4LG      -0.093000
     35 C27          1.4060    -1.9350     1.3090 ca         1 4LG      -0.061000
     36 C28          0.0140    -1.7680     1.2020 ca         1 4LG      -0.171500
     37 C29         -0.6770    -2.2980     0.0920 ca         1 4LG       0.149100
     38 C30          0.0350    -3.0130    -0.8810 ca         1 4LG      -0.171500
     39 O7          -2.0410    -2.1710    -0.0680 os         1 4LG      -0.346100
     40 C31         -2.8590    -1.4600     0.8760 c3         1 4LG       0.165600
     41 C32         -4.3110    -1.5150     0.3700 c3         1 4LG      -0.087400
     42 C33         -5.2880    -0.7820     1.3040 c3         1 4LG       0.166600
     43 H11         -9.6160     2.6680    -1.8100 h1         1 4LG       0.040033
     44 H12        -10.4900     3.1970    -0.3460 h1         1 4LG       0.040033
     45 H13A        -8.8470     3.7880    -0.6660 h1         1 4LG       0.040033
     46 H41         -7.6990    -0.6970     2.5050 h1         1 4LG       0.035700
     47 H42         -7.4240     0.8120     1.6230 h1         1 4LG       0.035700
     48 H5         -11.3190     1.1120    -1.1650 ha         1 4LG       0.116000
     49 H6         -12.3840    -1.1050    -1.0070 ha         1 4LG       0.111000
     50 H7         -11.2930    -2.9330     0.2850 ha         1 4LG       0.116000
     51 H8          -9.1210    -2.5330     1.4230 ha         1 4LG       0.132000
     52 H10          4.4000     1.9320     0.3550 ha         1 4LG       0.126000
     53 H13          3.1260     2.4070    -4.4760 ha         1 4LG       0.115000
     54 H14          3.5630     0.1470    -3.5210 ha         1 4LG       0.114000
     55 H15          3.5440     6.6000    -1.4540 h4         1 4LG       0.211000
     56 H16          3.0620     5.2490    -3.7780 ha         1 4LG       0.206000
     57 H171         3.6590     4.1070     1.3380 h1         1 4LG       0.087700
     58 H172         4.0220     5.8080     0.9960 h1         1 4LG       0.087700
     59 H191         7.2340     2.7760     3.4240 h1         1 4LG       0.051033
     60 H192         7.7790     2.8740     1.7360 h1         1 4LG       0.051033
     61 H193         7.8180     4.3220     2.7730 h1         1 4LG       0.051033
     62 H20          4.3070    -3.6840    -1.2910 h1         1 4LG       0.062700
     63 H211         6.5810    -2.8570    -1.2260 h1         1 4LG       0.050700
     64 H212         6.2280    -1.7940     0.1480 h1         1 4LG       0.050700
     65 HN2          7.3210    -3.8180     0.8430 hn         1 4LG       0.423000
     66 H221         5.6800    -4.5980     2.5280 h1         1 4LG       0.064200
     67 H222         5.8470    -2.8260     2.4360 h1         1 4LG       0.064200
     68 H241         3.1400    -1.6850    -2.0640 h1         1 4LG       0.045700
     69 H242         4.8580    -1.5990    -2.4880 h1         1 4LG       0.045700
     70 H25          1.9460    -3.7750    -1.5170 ha         1 4LG       0.123500
     71 H27          1.9220    -1.5400     2.1810 ha         1 4LG       0.123500
     72 H28         -0.5090    -1.2400     1.9930 ha         1 4LG       0.123000
     73 H30         -0.4970    -3.4580    -1.7180 ha         1 4LG       0.123000
     74 H311        -2.7990    -1.9250     1.8690 h1         1 4LG       0.035200
     75 H312        -2.5380    -0.4130     0.9560 h1         1 4LG       0.035200
     76 H321        -4.3610    -1.0650    -0.6290 hc         1 4LG       0.068700
     77 H322        -4.6200    -2.5630     0.2750 hc         1 4LG       0.068700
     78 H331        -5.2550    -1.2370     2.3030 h1         1 4LG       0.021200
     79 H332        -4.9940     0.2730     1.3910 h1         1 4LG       0.021200
     80 O5           3.1980    -3.9920     2.5010 o          1 4LG      -0.552000
@<TRIPOS>BOND
     1     1     2 1   
     2     1    43 1   
     3     1    44 1   
     4     1    45 1   
     5     2     3 1   
     6     3     4 ar  
     7     3     7 ar  
     8     4     5 1   
     9     4    10 ar  
    10     5     6 1   
    11     5    46 1   
    12     5    47 1   
    13     6    42 1   
    14     7     8 ar  
    15     7    48 1   
    16     8     9 ar  
    17     8    49 1   
    18     9    10 ar  
    19     9    50 1   
    20    10    51 1   
    21    11    12 ar  
    22    11    16 ar  
    23    11    32 1   
    24    12    13 ar  
    25    12    52 1   
    26    13    14 ar  
    27    13    17 1   
    28    14    15 ar  
    29    14    19 1   
    30    15    16 ar  
    31    15    53 1   
    32    16    54 1   
    33    17    18 1   
    34    17    20 1   
    35    18    19 2   
    36    18    55 1   
    37    19    56 1   
    38    20    21 1   
    39    20    57 1   
    40    20    58 1   
    41    21    22 1   
    42    21    23 2   
    43    22    24 1   
    44    24    59 1   
    45    24    60 1   
    46    24    61 1   
    47    25    26 1   
    48    25    30 1   
    49    25    31 1   
    50    25    62 1   
    51    26    27 1   
    52    26    63 1   
    53    26    64 1   
    54    27    28 1   
    55    27    65 1   
    56    28    29 1   
    57    28    66 1   
    58    28    67 1   
    59    29    30 1   
    60    29    80 2   
    61    30    34 1   
    62    31    32 1   
    63    31    68 1   
    64    31    69 1   
    65    33    34 ar  
    66    33    38 ar  
    67    33    70 1   
    68    34    35 ar  
    69    35    36 ar  
    70    35    71 1   
    71    36    37 ar  
    72    36    72 1   
    73    37    38 ar  
    74    37    39 1   
    75    38    73 1   
    76    39    40 1   
    77    40    41 1   
    78    40    74 1   
    79    40    75 1   
    80    41    42 1   
    81    41    76 1   
    82    41    77 1   
    83    42    78 1   
    84    42    79 1   
@<TRIPOS>SUBSTRUCTURE
     1 4LG         1 TEMP              0 ****  ****    0 ROOT
