@<TRIPOS>MOLECULE
4LG
   80    84     1     0     0
SMALL
bcc


@<TRIPOS>ATOM
      1 C1          -9.9380     3.0630     1.1690 c3         1 4LG       0.126700
      2 O1          -8.9860     2.0770     0.8250 os         1 4LG      -0.327900
      3 C2          -9.4130     0.9290     0.2600 ca         1 4LG       0.138100
      4 C3          -8.4120    -0.0150    -0.0170 ca         1 4LG      -0.115300
      5 C4          -6.9880     0.3160     0.3330 c3         1 4LG       0.195700
      6 O2          -6.1510    -0.7590     0.0060 os         1 4LG      -0.413600
      7 C5         -10.7420     0.6590    -0.0450 ca         1 4LG      -0.216000
      8 C6         -11.0820    -0.5570    -0.6310 ca         1 4LG      -0.091000
      9 C7         -10.1060    -1.4950    -0.9120 ca         1 4LG      -0.167000
     10 C8          -8.7770    -1.2180    -0.6030 ca         1 4LG      -0.071000
     11 C9           3.7630     0.5090    -1.2840 ca         1 4LG       0.158100
     12 C10          3.7840     1.5900    -0.4130 ca         1 4LG      -0.191000
     13 C11          3.3600     2.8190    -0.9050 ca         1 4LG       0.001800
     14 C12          2.9180     2.9960    -2.2340 ca         1 4LG      -0.125800
     15 C13          2.9030     1.8900    -3.0810 ca         1 4LG      -0.040000
     16 C14          3.3230     0.6580    -2.6120 ca         1 4LG      -0.233000
     17 N1           3.2680     4.0280    -0.2730 na         1 4LG      -0.061400
     18 C15          2.8110     4.9640    -1.1710 cc         1 4LG      -0.109100
     19 C16          2.5750     4.3800    -2.3760 cd         1 4LG      -0.166200
     20 C17          3.7090     4.3030     1.0580 c3         1 4LG      -0.013700
     21 C18          5.2130     4.4910     1.1300 c          1 4LG       0.611100
     22 O3           5.5980     4.6750     2.3800 os         1 4LG      -0.423900
     23 O4           5.9470     4.4800     0.1790 o          1 4LG      -0.504000
     24 C19          6.9930     4.8860     2.6180 c3         1 4LG       0.129700
     25 C20          4.4940    -3.0250    -0.6950 c6         1 4LG       0.136700
     26 C21          5.9760    -2.9770    -0.3660 c6         1 4LG       0.139800
     27 N2           6.2690    -4.0300     0.5780 n7         1 4LG      -0.798200
     28 C22          5.6750    -3.7040     1.8530 c6         1 4LG       0.071800
     29 C23          4.1870    -3.4630     1.7460 c          1 4LG       0.720500
     30 N3           3.6930    -3.1260     0.5300 n          1 4LG      -0.387000
     31 C24          4.0660    -1.8390    -1.5410 c3         1 4LG       0.125400
     32 O6           4.1980    -0.6660    -0.7730 os         1 4LG      -0.323900
     33 C25          1.5320    -4.0280    -0.1450 ca         1 4LG      -0.079000
     34 C26          2.2830    -2.9920     0.3990 ca         1 4LG      -0.000400
     35 C27          1.6420    -1.8260     0.7850 ca         1 4LG      -0.079000
     36 C28          0.2680    -1.6850     0.6370 ca         1 4LG      -0.189500
     37 C29         -0.4800    -2.7240     0.0870 ca         1 4LG       0.149100
     38 C30          0.1650    -3.8980    -0.3060 ca         1 4LG      -0.189500
     39 O7          -1.8120    -2.6830    -0.1020 os         1 4LG      -0.322900
     40 C31         -2.5190    -1.5090     0.2590 c3         1 4LG       0.142400
     41 C32         -3.9840    -1.7330    -0.0540 c3         1 4LG      -0.087400
     42 C33         -4.8020    -0.5100     0.3130 c3         1 4LG       0.143400
     43 H11        -10.4710     3.4390     0.2920 h1         1 4LG       0.040033
     44 H12        -10.6690     2.6890     1.8910 h1         1 4LG       0.040033
     45 H13A        -9.3850     3.8820     1.6220 h1         1 4LG       0.040033
     46 H41         -6.9120     0.5510     1.4050 h1         1 4LG       0.035700
     47 H42         -6.6730     1.2260    -0.1990 h1         1 4LG       0.035700
     48 H5         -11.5220     1.3790     0.1650 ha         1 4LG       0.134000
     49 H6         -12.1200    -0.7590    -0.8640 ha         1 4LG       0.129000
     50 H7         -10.3690    -2.4400    -1.3690 ha         1 4LG       0.134000
     51 H8          -8.0180    -1.9560    -0.8230 ha         1 4LG       0.150000
     52 H10          4.1220     1.4560     0.6070 ha         1 4LG       0.144000
     53 H13          2.5700     1.9840    -4.1070 ha         1 4LG       0.133000
     54 H14          3.3110    -0.1850    -3.2880 ha         1 4LG       0.132000
     55 H15          2.6810     5.9900    -0.8630 h4         1 4LG       0.161000
     56 H16          2.1980     4.8710    -3.2580 ha         1 4LG       0.156000
     57 H171         3.4060     3.5020     1.7370 h1         1 4LG       0.087700
     58 H172         3.2200     5.2090     1.4220 h1         1 4LG       0.087700
     59 H191         7.0950     5.0250     3.6890 h1         1 4LG       0.051033
     60 H192         7.5810     4.0240     2.3060 h1         1 4LG       0.051033
     61 H193         7.3510     5.7740     2.0990 h1         1 4LG       0.051033
     62 H20          4.3130    -3.9150    -1.3100 h1         1 4LG       0.062700
     63 H211         6.5320    -3.1440    -1.2890 h1         1 4LG       0.050700
     64 H212         6.2520    -1.9810     0.0110 h1         1 4LG       0.050700
     65 HN2          7.2680    -4.1350     0.6880 hn         1 4LG       0.367800
     66 H221         5.8210    -4.5230     2.5590 h1         1 4LG       0.064200
     67 H222         6.1060    -2.8020     2.3170 h1         1 4LG       0.064200
     68 H241         3.0350    -1.9670    -1.8860 h1         1 4LG       0.045700
     69 H242         4.7070    -1.8120    -2.4310 h1         1 4LG       0.045700
     70 H25          2.0180    -4.9470    -0.4490 ha         1 4LG       0.141500
     71 H27          2.2120    -1.0090     1.2060 ha         1 4LG       0.141500
     72 H28         -0.1940    -0.7620     0.9570 ha         1 4LG       0.141000
     73 H30         -0.4120    -4.7090    -0.7330 ha         1 4LG       0.141000
     74 H311        -2.3870    -1.2960     1.3260 h1         1 4LG       0.035200
     75 H312        -2.1370    -0.6470    -0.2990 h1         1 4LG       0.035200
     76 H321        -4.1040    -1.9470    -1.1190 hc         1 4LG       0.068700
     77 H322        -4.3510    -2.5990     0.5030 hc         1 4LG       0.068700
     78 H331        -4.6860    -0.2840     1.3830 h1         1 4LG       0.021200
     79 H332        -4.4360     0.3700    -0.2360 h1         1 4LG       0.021200
     80 O5           3.4740    -3.5490     2.7350 o          1 4LG      -0.627500
@<TRIPOS>BOND
     1     1     2 1   
     2     1    43 1   
     3     1    44 1   
     4     1    45 1   
     5     2     3 1   
     6     3     4 ar  
     7     3     7 ar  
     8     4     5 1   
     9     4    10 ar  
    10     5     6 1   
    11     5    46 1   
    12     5    47 1   
    13     6    42 1   
    14     7     8 ar  
    15     7    48 1   
    16     8     9 ar  
    17     8    49 1   
    18     9    10 ar  
    19     9    50 1   
    20    10    51 1   
    21    11    12 ar  
    22    11    16 ar  
    23    11    32 1   
    24    12    13 ar  
    25    12    52 1   
    26    13    14 ar  
    27    13    17 1   
    28    14    15 ar  
    29    14    19 1   
    30    15    16 ar  
    31    15    53 1   
    32    16    54 1   
    33    17    18 1   
    34    17    20 1   
    35    18    19 2   
    36    18    55 1   
    37    19    56 1   
    38    20    21 1   
    39    20    57 1   
    40    20    58 1   
    41    21    22 1   
    42    21    23 2   
    43    22    24 1   
    44    24    59 1   
    45    24    60 1   
    46    24    61 1   
    47    25    26 1   
    48    25    30 1   
    49    25    31 1   
    50    25    62 1   
    51    26    27 1   
    52    26    63 1   
    53    26    64 1   
    54    27    28 1   
    55    27    65 1   
    56    28    29 1   
    57    28    66 1   
    58    28    67 1   
    59    29    30 1   
    60    29    80 2   
    61    30    34 1   
    62    31    32 1   
    63    31    68 1   
    64    31    69 1   
    65    33    34 ar  
    66    33    38 ar  
    67    33    70 1   
    68    34    35 ar  
    69    35    36 ar  
    70    35    71 1   
    71    36    37 ar  
    72    36    72 1   
    73    37    38 ar  
    74    37    39 1   
    75    38    73 1   
    76    39    40 1   
    77    40    41 1   
    78    40    74 1   
    79    40    75 1   
    80    41    42 1   
    81    41    76 1   
    82    41    77 1   
    83    42    78 1   
    84    42    79 1   
@<TRIPOS>SUBSTRUCTURE
     1 4LG         1 TEMP              0 ****  ****    0 ROOT
