@<TRIPOS>MOLECULE
4LH
   66    69     1     0     0
SMALL
No Charge or Current Charge


@<TRIPOS>ATOM
      1 C2          -0.4420     2.2070     1.6170 ca         1 4LH       0.428900
      2 C4          -2.4030     3.1610     2.2810 ca         1 4LH       0.443900
      3 C5          -1.9570     4.4090     1.8080 ca         1 4LH      -0.130000
      4 C6          -0.6800     4.4490     1.2240 ca         1 4LH       0.187900
      5 CAP         -1.9800    -4.6870    -2.0500 c2         1 4LH      -0.226000
      6 CAQ         -2.5780    -3.9720    -1.0640 ce         1 4LH      -0.305200
      7 CBE         -3.3280    -2.6960    -1.2800 c          1 4LH       0.610300
      8 OAE         -3.6450    -2.3130    -2.4000 o          1 4LH      -0.585100
      9 CBH         -4.2400    -0.7590     0.1310 ca         1 4LH      -0.021000
     10 CAN         -4.0380    -0.1310     1.3740 ca         1 4LH      -0.139000
     11 CAJ         -5.1200    -0.1670    -0.8010 ca         1 4LH      -0.124000
     12 CAH         -5.7720     1.0390    -0.4920 ca         1 4LH      -0.090000
     13 CAI         -5.5520     1.6640     0.7460 ca         1 4LH      -0.129000
     14 CBF         -4.6810     1.0840     1.6880 ca         1 4LH      -0.094300
     15 CAV         -4.4240     1.7690     3.0300 c3         1 4LH       0.278100
     16 NAZ         -3.6670     3.0210     2.8470 nu         1 4LH      -0.918100
     17 N3          -1.6430     2.0580     2.1870 nb         1 4LH      -0.339000
     18 Cl5         -2.9450     5.8710     1.9170 cl         1 4LH      -0.194000
     19 N1           0.0800     3.3430     1.1200 nb         1 4LH      -0.264000
     20 NBB          0.2680     1.0260     1.4950 nu         1 4LH      -0.922900
     21 CBK          1.5180     0.6460     0.9640 ca         1 4LH       0.245000
     22 CBL          1.7090    -0.7060     0.5700 ca         1 4LH       0.129100
     23 CAO          2.9500    -1.1200     0.0360 ca         1 4LH      -0.222000
     24 OBC          0.6510    -1.5930     0.7230 os         1 4LH      -0.357100
     25 CAA          0.7440    -2.9790     0.3460 c3         1 4LH       0.151900
     26 CAL          2.5950     1.5470     0.8380 ca         1 4LH      -0.049000
     27 CAK          3.8250     1.1230     0.3060 ca         1 4LH      -0.187000
     28 CBI          4.0110    -0.2100    -0.1000 ca         1 4LH       0.315000
     29 NBP          5.2400    -0.6500    -0.6360 nh         1 4LH      -0.783400
     30 CAT          6.1590     0.2920    -1.3530 c6         1 4LH       0.195300
     31 CAR          7.1540    -0.4480    -2.3060 c6         1 4LH       0.157800
     32 NBO          7.9190    -1.5320    -1.6170 n3         1 4LH      -0.714600
     33 CAB          8.8900    -2.2010    -2.5100 c3         1 4LH       0.152100
     34 CAS          6.9690    -2.4910    -0.9760 c6         1 4LH       0.157800
     35 CAU          5.9690    -1.7930     0.0030 c6         1 4LH       0.195300
     36 H1          -0.2630     5.3740     0.8280 h4         1 4LH       0.030100
     37 H2          -1.4180    -5.5980    -1.8380 ha         1 4LH       0.177500
     38 H3          -2.0350    -4.3850    -3.0980 ha         1 4LH       0.177500
     39 H5          -2.4750    -4.2880    -0.0260 ha         1 4LH       0.174000
     40 H7          -3.1720    -2.4090     0.7180 hn         1 4LH       0.153000
     41 H8          -3.3630    -0.5810     2.0980 ha         1 4LH       0.124000
     42 H9          -5.3200    -0.6330    -1.7620 ha         1 4LH       0.148000
     43 H10         -6.4490     1.4900    -1.2140 ha         1 4LH       0.115000
     44 H11         -6.0550     2.6010     0.9730 ha         1 4LH       0.110000
     45 H12         -5.3890     1.9780     3.5130 h1         1 4LH       0.065700
     46 H13         -3.8720     1.0880     3.6930 h1         1 4LH       0.065700
     47 H14         -4.2050     3.8880     2.8690 hn         1 4LH       0.505000
     48 H15         -0.3180     0.2170     1.7020 hn         1 4LH       0.514000
     49 H16          3.1030    -2.1420    -0.2880 ha         1 4LH       0.119000
     50 H17         -0.1950    -3.4970     0.5730 h1         1 4LH       0.039367
     51 H18          0.9360    -3.0780    -0.7300 h1         1 4LH       0.039367
     52 H19          1.5490    -3.4810     0.8970 h1         1 4LH       0.039367
     53 H20          2.4980     2.5760     1.1660 ha         1 4LH       0.137000
     54 H21          4.6380     1.8380     0.2300 ha         1 4LH       0.119000
     55 H22          5.5760     1.0070    -1.9530 h1         1 4LH       0.044700
     56 H23          6.7400     0.8730    -0.6220 h1         1 4LH       0.044700
     57 H24          6.5810    -0.8680    -3.1460 h1         1 4LH       0.039700
     58 H25          7.8450     0.2950    -2.7320 h1         1 4LH       0.039700
     59 H27          9.5990    -1.4730    -2.9250 h1         1 4LH       0.032033
     60 H28          9.4650    -2.9570    -1.9590 h1         1 4LH       0.032033
     61 H29          8.3780    -2.6980    -3.3450 h1         1 4LH       0.032033
     62 H30          6.3870    -3.0160    -1.7480 h1         1 4LH       0.039700
     63 H31          7.5230    -3.2600    -0.4180 h1         1 4LH       0.039700
     64 H32          6.5310    -1.4260     0.8750 h1         1 4LH       0.044700
     65 H33          5.2630    -2.5500     0.3720 h1         1 4LH       0.044700
     66 NBA         -3.5550    -1.9800    -0.1140 ns         1 4LH      -0.141000
@<TRIPOS>BOND
     1     1    17 ar  
     2     1    19 ar  
     3     1    20 1   
     4     2     3 ar  
     5     2    16 1   
     6     2    17 ar  
     7     3     4 ar  
     8     3    18 1   
     9     4    19 ar  
    10     4    36 1   
    11     5     6 2   
    12     5    37 1   
    13     5    38 1   
    14     6     7 1   
    15     6    39 1   
    16     7     8 2   
    17     7    66 1   
    18     9    10 ar  
    19     9    11 ar  
    20     9    66 1   
    21    10    14 ar  
    22    10    41 1   
    23    11    12 ar  
    24    11    42 1   
    25    12    13 ar  
    26    12    43 1   
    27    13    14 ar  
    28    13    44 1   
    29    14    15 1   
    30    15    16 1   
    31    15    45 1   
    32    15    46 1   
    33    16    47 1   
    34    20    21 1   
    35    20    48 1   
    36    21    22 ar  
    37    21    26 ar  
    38    22    23 ar  
    39    22    24 1   
    40    23    28 ar  
    41    23    49 1   
    42    24    25 1   
    43    25    50 1   
    44    25    51 1   
    45    25    52 1   
    46    26    27 ar  
    47    26    53 1   
    48    27    28 ar  
    49    27    54 1   
    50    28    29 1   
    51    29    30 1   
    52    29    35 1   
    53    30    31 1   
    54    30    55 1   
    55    30    56 1   
    56    31    32 1   
    57    31    57 1   
    58    31    58 1   
    59    32    33 1   
    60    32    34 1   
    61    33    59 1   
    62    33    60 1   
    63    33    61 1   
    64    34    35 1   
    65    34    62 1   
    66    34    63 1   
    67    35    64 1   
    68    35    65 1   
    69    40    66 1   
@<TRIPOS>SUBSTRUCTURE
     1 4LH         1 TEMP              0 ****  ****    0 ROOT
