@<TRIPOS>MOLECULE
4LH
   66    69     1     0     0
SMALL
abcg2


@<TRIPOS>ATOM
      1 C2          -0.2700     2.0360     1.1850 ca         1 4LH       0.428900
      2 C4          -2.2160     3.1230     1.6930 ca         1 4LH       0.443900
      3 C5          -1.7300     4.2430     0.9770 ca         1 4LH      -0.130000
      4 C6          -0.4930     4.1300     0.3970 ca         1 4LH       0.187900
      5 CAP         -3.1580    -4.5570    -2.4130 c2         1 4LH      -0.226000
      6 CAQ         -3.0500    -3.6280    -1.4700 ce         1 4LH      -0.305200
      7 CBE         -4.1700    -2.7040    -1.1550 c          1 4LH       0.610300
      8 OAE         -5.2460    -2.7570    -1.7260 o          1 4LH      -0.585100
      9 CBH         -4.6420    -0.7770     0.3550 ca         1 4LH      -0.021000
     10 CAN         -4.0290     0.0220     1.3230 ca         1 4LH      -0.139000
     11 CAJ         -5.9600    -0.5070    -0.0150 ca         1 4LH      -0.124000
     12 CAH         -6.6300     0.5500     0.5880 ca         1 4LH      -0.090000
     13 CAI         -6.0160     1.3430     1.5440 ca         1 4LH      -0.129000
     14 CBF         -4.7010     1.0810     1.9160 ca         1 4LH      -0.094300
     15 CAV         -4.0000     1.9640     2.9200 c3         1 4LH       0.278100
     16 NAZ         -3.4070     3.1350     2.3070 nu         1 4LH      -0.918100
     17 N3          -1.4650     2.0350     1.7790 nb         1 4LH      -0.339000
     18 CL5         -2.6630     5.6920     0.8370 cl         1 4LH      -0.194000
     19 N1           0.2580     3.0360     0.4860 nb         1 4LH      -0.264000
     20 NBB          0.4290     0.8830     1.3330 nu         1 4LH      -0.922900
     21 CBK          1.6870     0.5590     0.8120 ca         1 4LH       0.245000
     22 CBL          1.8900    -0.7450     0.3240 ca         1 4LH       0.129100
     23 CAO          3.1300    -1.1330    -0.1540 ca         1 4LH      -0.222000
     24 OBC          0.8120    -1.5530     0.3650 os         1 4LH      -0.357100
     25 CAA          0.9580    -2.9040    -0.0220 c3         1 4LH       0.151900
     26 CAL          2.7630     1.4290     0.8000 ca         1 4LH      -0.049000
     27 CAK          4.0090     1.0450     0.3180 ca         1 4LH      -0.187000
     28 CBI          4.2190    -0.2460    -0.1650 ca         1 4LH       0.315000
     29 NBP          5.4460    -0.6730    -0.6760 nh         1 4LH      -0.783400
     30 CAT          6.5050     0.3110    -0.7830 c6         1 4LH       0.195300
     31 CAR          7.6380    -0.2150    -1.6450 c6         1 4LH       0.157800
     32 NBO          8.1540    -1.4610    -1.1220 n3         1 4LH      -0.714600
     33 CAB          9.2870    -1.9360    -1.8810 c3         1 4LH       0.152100
     34 CAS          7.0920    -2.4430    -1.0670 c6         1 4LH       0.157800
     35 CAU          5.9530    -1.9530    -0.1970 c6         1 4LH       0.195300
     36 H1          -0.0850     4.9590    -0.1710 h4         1 4LH       0.030100
     37 H2          -2.3370    -5.2230    -2.6370 ha         1 4LH       0.177500
     38 H3          -4.0660    -4.6810    -2.9880 ha         1 4LH       0.177500
     39 H5          -2.1270    -3.5290    -0.9080 ha         1 4LH       0.174000
     40 H7          -2.9360    -1.8750     0.2050 hn         1 4LH       0.153000
     41 H8          -3.0050    -0.1760     1.6140 ha         1 4LH       0.124000
     42 H9          -6.4670    -1.1050    -0.7540 ha         1 4LH       0.148000
     43 H10         -7.6540     0.7490     0.3000 ha         1 4LH       0.115000
     44 H11         -6.5620     2.1590     2.0030 ha         1 4LH       0.110000
     45 H12         -4.7100     2.3190     3.6670 h1         1 4LH       0.065700
     46 H13         -3.2250     1.4090     3.4460 h1         1 4LH       0.065700
     47 H14         -4.0050     3.9330     2.1670 hn         1 4LH       0.505000
     48 H15         -0.0780     0.1470     1.7970 hn         1 4LH       0.514000
     49 H16          3.2550    -2.1280    -0.5580 ha         1 4LH       0.119000
     50 H17         -0.0020    -3.3820     0.1580 h1         1 4LH       0.039367
     51 H18          1.2060    -3.0010    -1.0820 h1         1 4LH       0.039367
     52 H19          1.7180    -3.4190     0.5700 h1         1 4LH       0.039367
     53 H20          2.6410     2.4300     1.1870 ha         1 4LH       0.137000
     54 H21          4.8100     1.7680     0.3590 ha         1 4LH       0.119000
     55 H22          6.1170     1.2160    -1.2540 h1         1 4LH       0.044700
     56 H23          6.9010     0.5960     0.2040 h1         1 4LH       0.044700
     57 H24          7.2800    -0.3240    -2.6840 h1         1 4LH       0.039700
     58 H25          8.4370     0.5290    -1.6570 h1         1 4LH       0.039700
     59 H27         10.0840    -1.1910    -1.8690 h1         1 4LH       0.032033
     60 H28          9.6790    -2.8510    -1.4330 h1         1 4LH       0.032033
     61 H29          9.0470    -2.1540    -2.9330 h1         1 4LH       0.032033
     62 H30          6.7040    -2.6840    -2.0720 h1         1 4LH       0.039700
     63 H31          7.4790    -3.3710    -0.6400 h1         1 4LH       0.039700
     64 H32          6.2990    -1.8670     0.8440 h1         1 4LH       0.044700
     65 H33          5.1660    -2.7040    -0.2150 h1         1 4LH       0.044700
     66 NBA         -3.8650    -1.8090    -0.1800 ns         1 4LH      -0.141000
@<TRIPOS>BOND
     1     1    17 ar  
     2     1    19 ar  
     3     1    20 1   
     4     2     3 ar  
     5     2    16 1   
     6     2    17 ar  
     7     3     4 ar  
     8     3    18 1   
     9     4    19 ar  
    10     4    36 1   
    11     5     6 2   
    12     5    37 1   
    13     5    38 1   
    14     6     7 1   
    15     6    39 1   
    16     7     8 2   
    17     7    66 1   
    18     9    10 ar  
    19     9    11 ar  
    20     9    66 1   
    21    10    14 ar  
    22    10    41 1   
    23    11    12 ar  
    24    11    42 1   
    25    12    13 ar  
    26    12    43 1   
    27    13    14 ar  
    28    13    44 1   
    29    14    15 1   
    30    15    16 1   
    31    15    45 1   
    32    15    46 1   
    33    16    47 1   
    34    20    21 1   
    35    20    48 1   
    36    21    22 ar  
    37    21    26 ar  
    38    22    23 ar  
    39    22    24 1   
    40    23    28 ar  
    41    23    49 1   
    42    24    25 1   
    43    25    50 1   
    44    25    51 1   
    45    25    52 1   
    46    26    27 ar  
    47    26    53 1   
    48    27    28 ar  
    49    27    54 1   
    50    28    29 1   
    51    29    30 1   
    52    29    35 1   
    53    30    31 1   
    54    30    55 1   
    55    30    56 1   
    56    31    32 1   
    57    31    57 1   
    58    31    58 1   
    59    32    33 1   
    60    32    34 1   
    61    33    59 1   
    62    33    60 1   
    63    33    61 1   
    64    34    35 1   
    65    34    62 1   
    66    34    63 1   
    67    35    64 1   
    68    35    65 1   
    69    40    66 1   
@<TRIPOS>SUBSTRUCTURE
     1 4LH         1 TEMP              0 ****  ****    0 ROOT
