@<TRIPOS>MOLECULE
4LI
   72    76     1     0     0
SMALL
bcc


@<TRIPOS>ATOM
      1 C1          -6.8090     2.3930    -2.4030 ca         1 4LI      -0.109000
      2 C2          -7.6380     3.2060    -1.6460 ca         1 4LI      -0.137000
      3 C3          -0.5530    -5.4200    -1.2520 ca         1 4LI      -0.138000
      4 C4           0.5790    -5.3600    -0.4570 ca         1 4LI      -0.103000
      5 C5          -0.9180    -4.3190    -2.0090 ca         1 4LI      -0.109000
      6 C6          -5.6390     1.8870    -1.8580 ca         1 4LI      -0.167000
      7 C7          -7.2980     3.4910    -0.3310 ca         1 4LI      -0.109000
      8 C8           1.3370    -4.1950    -0.4080 ca         1 4LI      -0.173600
      9 C9          -0.1730    -3.1410    -1.9940 ca         1 4LI      -0.058300
     10 C10         -5.2690     2.1590    -0.5390 ca         1 4LI       0.133600
     11 C11          0.9570    -3.0820    -1.1710 ca         1 4LI       0.199600
     12 C12         -6.1380     2.9620     0.2110 ca         1 4LI       0.017400
     13 C13         -0.2300     0.5730     0.3400 ca         1 4LI       0.989900
     14 C14          1.8850     1.2980     0.1510 ca         1 4LI       0.991900
     15 C15          1.3440    -0.7490    -0.5570 ca         1 4LI       0.979900
     16 C17          4.7040     0.8110     0.9800 c          1 4LI       0.662100
     17 C18         -3.5950     0.3990    -0.4950 c6         1 4LI       0.164800
     18 C19         -3.0280     2.6140     0.2410 c6         1 4LI       0.164800
     19 C20         -2.5630    -0.1840     0.4590 c6         1 4LI       0.222300
     20 C21         -1.9930     2.0500     1.1980 c6         1 4LI       0.222300
     21 C22          4.9770     3.2480     0.3340 c5         1 4LI       0.000700
     22 C23          2.5340     3.4510     1.1030 c5         1 4LI       0.333900
     23 C24          4.2120     1.9500     0.0810 c5         1 4LI       0.167500
     24 C25         -0.5740    -1.9970    -2.8720 c3         1 4LI      -0.044800
     25 C26          3.5970    -4.7040     2.5630 c3         1 4LI       0.091300
     26 C27          6.2130    -1.0990     1.1130 c3         1 4LI       0.089300
     27 N28          0.6410     1.5660     0.5340 nb         1 4LI      -0.892000
     28 N29          0.0830    -0.6210    -0.1770 nb         1 4LI      -0.892000
     29 N30          2.2950     0.1740    -0.4330 nb         1 4LI      -0.895000
     30 N31         -4.1030     1.6470     0.0430 nh         1 4LI      -0.638000
     31 N32         -1.5080     0.7750     0.7090 nh         1 4LI      -0.769300
     32 N33          2.8250     2.2430     0.3560 nh         1 4LI      -0.766300
     33 N34          1.7420    -1.9160    -1.1240 nu         1 4LI      -0.744300
     34 N35          2.4770    -4.6440     1.6540 ns         1 4LI      -0.560900
     35 N36          5.6720     0.0590     0.4420 ns         1 4LI      -0.563900
     36 O37          3.6470    -3.7310    -0.0370 o          1 4LI      -0.623100
     37 O38          4.2710     0.6490     2.1070 o          1 4LI      -0.580100
     38 S39          4.1320     4.0330     1.7290 ss         1 4LI      -0.309200
     39 CL40        -5.7980     3.2690     1.8840 cl         1 4LI      -0.105400
     40 H1          -7.0630     2.1590    -3.4290 ha         1 4LI       0.134000
     41 H2          -8.5490     3.6120    -2.0640 ha         1 4LI       0.137000
     42 H3          -1.1400    -6.3280    -1.2970 ha         1 4LI       0.136000
     43 H4           0.8800    -6.2290     0.1150 ha         1 4LI       0.134000
     44 H5          -1.7910    -4.3750    -2.6480 ha         1 4LI       0.132000
     45 H6          -4.9980     1.2690    -2.4720 ha         1 4LI       0.134000
     46 H7          -7.9440     4.1070     0.2800 ha         1 4LI       0.147000
     47 H18         -3.1340     0.5210    -1.4880 h1         1 4LI       0.046450
     48 H18A        -4.4170    -0.3110    -0.5980 h1         1 4LI       0.046450
     49 H19         -3.4220     3.5400     0.6580 h1         1 4LI       0.046450
     50 H19A        -2.5460     2.8650    -0.7160 h1         1 4LI       0.046450
     51 H20         -3.0480    -0.4350     1.4070 h1         1 4LI       0.075200
     52 H20A        -2.1440    -1.0950     0.0420 h1         1 4LI       0.075200
     53 H21         -1.1640     2.7420     1.3050 h1         1 4LI       0.075200
     54 H21A        -2.4500     1.9060     2.1820 h1         1 4LI       0.075200
     55 H22          6.0220     3.0750     0.5830 h1         1 4LI       0.083200
     56 H22A         4.9340     3.8890    -0.5470 h1         1 4LI       0.083200
     57 H23          2.0710     4.2070     0.4670 h2         1 4LI       0.082700
     58 H23A         1.8710     3.2550     1.9430 h2         1 4LI       0.082700
     59 H24          4.3370     1.6690    -0.9680 h1         1 4LI       0.085700
     60 H25         -1.1710    -1.2680    -2.3220 hc         1 4LI       0.048367
     61 H25A         0.2940    -1.4670    -3.2640 hc         1 4LI       0.048367
     62 H25B        -1.1680    -2.3490    -3.7150 hc         1 4LI       0.048367
     63 H26          3.9640    -3.7090     2.8200 h1         1 4LI       0.043033
     64 H26A         3.2730    -5.1980     3.4740 h1         1 4LI       0.043033
     65 H26B         4.4230    -5.2730     2.1380 h1         1 4LI       0.043033
     66 H27          6.5360    -0.8520     2.1230 h1         1 4LI       0.043700
     67 H27A         5.4840    -1.9110     1.1680 h1         1 4LI       0.043700
     68 H27B         7.0770    -1.4500     0.5550 h1         1 4LI       0.043700
     69 HN34         2.7420    -2.0500    -1.1390 hn         1 4LI       0.475800
     70 HN35         1.5670    -4.8980     2.0010 hn         1 4LI       0.322500
     71 HN36         5.8930     0.1800    -0.5330 hn         1 4LI       0.311500
     72 C16          2.5890    -4.1600     0.4120 c          1 4LI       0.682700
@<TRIPOS>BOND
     1     1     2 ar  
     2     1     6 ar  
     3     1    40 1   
     4     2     7 ar  
     5     2    41 1   
     6     3     4 ar  
     7     3     5 ar  
     8     3    42 1   
     9     4     8 ar  
    10     4    43 1   
    11     5     9 ar  
    12     5    44 1   
    13     6    10 ar  
    14     6    45 1   
    15     7    12 ar  
    16     7    46 1   
    17     8    11 ar  
    18     8    72 1   
    19     9    11 ar  
    20     9    24 1   
    21    10    12 ar  
    22    10    30 1   
    23    11    33 1   
    24    12    39 1   
    25    13    27 ar  
    26    13    28 ar  
    27    13    31 1   
    28    14    27 ar  
    29    14    29 ar  
    30    14    32 1   
    31    15    28 ar  
    32    15    29 ar  
    33    15    33 1   
    34    16    23 1   
    35    16    35 1   
    36    16    37 2   
    37    17    19 1   
    38    17    30 1   
    39    17    47 1   
    40    17    48 1   
    41    18    20 1   
    42    18    30 1   
    43    18    49 1   
    44    18    50 1   
    45    19    31 1   
    46    19    51 1   
    47    19    52 1   
    48    20    31 1   
    49    20    53 1   
    50    20    54 1   
    51    21    23 1   
    52    21    38 1   
    53    21    55 1   
    54    21    56 1   
    55    22    32 1   
    56    22    38 1   
    57    22    57 1   
    58    22    58 1   
    59    23    32 1   
    60    23    59 1   
    61    24    60 1   
    62    24    61 1   
    63    24    62 1   
    64    25    34 1   
    65    25    63 1   
    66    25    64 1   
    67    25    65 1   
    68    26    35 1   
    69    26    66 1   
    70    26    67 1   
    71    26    68 1   
    72    33    69 1   
    73    34    70 1   
    74    34    72 1   
    75    35    71 1   
    76    36    72 2   
@<TRIPOS>SUBSTRUCTURE
     1 4LI         1 TEMP              0 ****  ****    0 ROOT
