@<TRIPOS>MOLECULE
4LI
   72    76     1     0     0
SMALL
No Charge or Current Charge


@<TRIPOS>ATOM
      1 C1          -7.8310     2.4660    -1.4800 ca         1 4LI      -0.091000
      2 C2          -8.4170     3.0340    -0.3380 ca         1 4LI      -0.119000
      3 C3          -0.1570    -5.5880    -1.6270 ca         1 4LI      -0.120000
      4 C4           0.7930    -5.5100    -0.6010 ca         1 4LI      -0.085000
      5 C5          -0.3680    -4.4950    -2.4740 ca         1 4LI      -0.091000
      6 C6          -6.4750     2.0950    -1.4640 ca         1 4LI      -0.149000
      7 C7          -7.6480     3.2300     0.8200 ca         1 4LI      -0.091000
      8 C8           1.5360    -4.3220    -0.3890 ca         1 4LI      -0.173600
      9 C9           0.3520    -3.3010    -2.2920 ca         1 4LI      -0.058300
     10 C10         -5.6860     2.2860    -0.3100 ca         1 4LI       0.272000
     11 C11          1.2860    -3.1970    -1.2200 ca         1 4LI       0.338000
     12 C12         -6.2900     2.8610     0.8410 ca         1 4LI       0.109000
     13 C13         -0.0550     0.8190    -0.4010 ca         1 4LI       0.463900
     14 C14          2.1270     1.3760    -0.1130 ca         1 4LI       0.465900
     15 C15          1.5670    -0.7200    -0.7130 ca         1 4LI       0.453900
     16 C17          4.8220     1.0560     1.5800 c          1 4LI       0.595100
     17 C18         -3.8710     0.6500    -0.9870 c6         1 4LI       0.164800
     18 C19         -3.2660     2.9670    -0.3810 c6         1 4LI       0.164800
     19 C20         -2.5070     0.1260    -0.4330 c6         1 4LI       0.222300
     20 C21         -1.8920     2.4840     0.1870 c6         1 4LI       0.222300
     21 C22          5.3320     3.3410     0.5240 c5         1 4LI       0.048600
     22 C23          2.7730     3.7680     0.4460 c5         1 4LI       0.381800
     23 C24          4.5860     1.9910     0.3250 c5         1 4LI       0.167500
     24 C25          0.1160    -2.1790    -3.3070 c3         1 4LI      -0.044800
     25 C26          3.3880    -5.3290     2.8400 c3         1 4LI       0.091300
     26 C27          5.7230    -1.2390     2.0810 c3         1 4LI       0.089300
     27 N28          0.8430     1.7740    -0.1020 nb         1 4LI      -0.366000
     28 N29          0.2580    -0.4510    -0.7060 nb         1 4LI      -0.366000
     29 N30          2.5440     0.1350    -0.4120 nb         1 4LI      -0.369000
     30 N31         -4.3170     1.9090    -0.3200 nh         1 4LI      -0.776400
     31 N32         -1.4260     1.1770    -0.4050 nh         1 4LI      -0.769300
     32 N33          3.1100     2.3330     0.2110 nh         1 4LI      -0.766300
     33 N34          1.9790    -2.0070    -0.9680 nu         1 4LI      -0.937900
     34 N35          2.4580    -5.2010     1.7150 ns         1 4LI      -0.493900
     35 N36          5.3980    -0.1350     1.1750 ns         1 4LI      -0.496900
     36 O37          3.5330    -3.4970     0.6900 o          1 4LI      -0.623100
     37 O38          4.5700     1.2890     2.7590 o          1 4LI      -0.580100
     38 S39          4.1650     4.3950     1.4900 ss         1 4LI      -0.405000
     39 Cl40        -5.3810     3.1090     2.3390 cl         1 4LI      -0.197000
     40 H1          -8.4250     2.3160    -2.3790 ha         1 4LI       0.116000
     41 H2          -9.4670     3.3210    -0.3500 ha         1 4LI       0.119000
     42 H3          -0.7140    -6.5100    -1.7820 ha         1 4LI       0.118000
     43 H4           0.9590    -6.3960     0.0070 ha         1 4LI       0.116000
     44 H5          -1.0890    -4.5810    -3.2840 ha         1 4LI       0.114000
     45 H6          -6.0340     1.6670    -2.3590 ha         1 4LI       0.116000
     46 H7          -8.1030     3.6650     1.7070 ha         1 4LI       0.129000
     47 H18         -3.7640     0.8210    -2.0690 h1         1 4LI       0.046450
     48 H18A        -4.6260    -0.1390    -0.8540 h1         1 4LI       0.046450
     49 H19         -3.5810     3.8580     0.1810 h1         1 4LI       0.046450
     50 H19A        -3.1220     3.2800    -1.4250 h1         1 4LI       0.046450
     51 H20         -2.6720    -0.2590     0.5850 h1         1 4LI       0.075200
     52 H20A        -2.2170    -0.7330    -1.0550 h1         1 4LI       0.075200
     53 H21         -1.1670     3.2900    -0.0000 h1         1 4LI       0.075200
     54 H21A        -1.9850     2.3830     1.2780 h1         1 4LI       0.075200
     55 H22          6.2900     3.2210     1.0470 h1         1 4LI       0.083200
     56 H22A         5.5280     3.8200    -0.4440 h1         1 4LI       0.083200
     57 H23          2.7490     4.3250    -0.5000 h2         1 4LI       0.082700
     58 H23A         1.8300     3.8960     0.9940 h2         1 4LI       0.082700
     59 H24          4.9590     1.4860    -0.5780 h1         1 4LI       0.085700
     60 H25         -0.7440    -1.5630    -3.0230 hc         1 4LI       0.048367
     61 H25A         0.9880    -1.5240    -3.4140 hc         1 4LI       0.048367
     62 H25B        -0.0930    -2.5870    -4.3030 hc         1 4LI       0.048367
     63 H26          3.4240    -4.3850     3.3990 h1         1 4LI       0.043033
     64 H26A         3.0490    -6.1320     3.5070 h1         1 4LI       0.043033
     65 H26B         4.3910    -5.5690     2.4650 h1         1 4LI       0.043033
     66 H27          6.4580    -0.9040     2.8240 h1         1 4LI       0.043700
     67 H27A         4.8130    -1.5770     2.5940 h1         1 4LI       0.043700
     68 H27B         6.1440    -2.0740     1.5060 h1         1 4LI       0.043700
     69 HN34         2.8620    -2.1930    -0.4840 hn         1 4LI       0.531000
     70 HN35         1.6480    -5.8060     1.6840 hn         1 4LI       0.322500
     71 HN36         5.5530    -0.2650     0.1820 hn         1 4LI       0.311500
     72 C16          2.5860    -4.2740     0.7050 c          1 4LI       0.615700
@<TRIPOS>BOND
     1     1     2 ar  
     2     1     6 ar  
     3     1    40 1   
     4     2     7 ar  
     5     2    41 1   
     6     3     4 ar  
     7     3     5 ar  
     8     3    42 1   
     9     4     8 ar  
    10     4    43 1   
    11     5     9 ar  
    12     5    44 1   
    13     6    10 ar  
    14     6    45 1   
    15     7    12 ar  
    16     7    46 1   
    17     8    11 ar  
    18     8    72 1   
    19     9    11 ar  
    20     9    24 1   
    21    10    12 ar  
    22    10    30 1   
    23    11    33 1   
    24    12    39 1   
    25    13    27 ar  
    26    13    28 ar  
    27    13    31 1   
    28    14    27 ar  
    29    14    29 ar  
    30    14    32 1   
    31    15    28 ar  
    32    15    29 ar  
    33    15    33 1   
    34    16    23 1   
    35    16    35 1   
    36    16    37 2   
    37    17    19 1   
    38    17    30 1   
    39    17    47 1   
    40    17    48 1   
    41    18    20 1   
    42    18    30 1   
    43    18    49 1   
    44    18    50 1   
    45    19    31 1   
    46    19    51 1   
    47    19    52 1   
    48    20    31 1   
    49    20    53 1   
    50    20    54 1   
    51    21    23 1   
    52    21    38 1   
    53    21    55 1   
    54    21    56 1   
    55    22    32 1   
    56    22    38 1   
    57    22    57 1   
    58    22    58 1   
    59    23    32 1   
    60    23    59 1   
    61    24    60 1   
    62    24    61 1   
    63    24    62 1   
    64    25    34 1   
    65    25    63 1   
    66    25    64 1   
    67    25    65 1   
    68    26    35 1   
    69    26    66 1   
    70    26    67 1   
    71    26    68 1   
    72    33    69 1   
    73    34    70 1   
    74    34    72 1   
    75    35    71 1   
    76    36    72 2   
@<TRIPOS>SUBSTRUCTURE
     1 4LI         1 TEMP              0 ****  ****    0 ROOT
