@<TRIPOS>MOLECULE
4LJ
   13    12     1     0     0
SMALL
No Charge or Current Charge


@<TRIPOS>ATOM
      1 Br          -1.5710     0.0580    -0.0230 br         1 4LJ      -0.275000
      2 C1           0.2090    -0.8350     0.0360 c3         1 4LJ       0.093600
      3 C2           1.3560     0.1920    -0.0170 c3         1 4LJ      -0.081400
      4 C3           2.7460    -0.4720     0.0270 c3         1 4LJ       0.146800
      5 N1           3.8250     0.5300    -0.0340 n8         1 4LJ      -0.993200
      6 H1           0.2440    -1.4150     0.9670 h1         1 4LJ       0.069200
      7 H2           0.2530    -1.5160    -0.8240 h1         1 4LJ       0.069200
      8 H3           1.2640     0.7830    -0.9360 hc         1 4LJ       0.063700
      9 H4           1.2540     0.8840     0.8280 hc         1 4LJ       0.063700
     10 H5           2.8530    -1.0510     0.9550 h1         1 4LJ       0.027700
     11 H6           2.8540    -1.1580    -0.8250 h1         1 4LJ       0.027700
     12 H7           3.7890     1.1140     0.8100 hn         1 4LJ       0.394000
     13 H8           4.7310     0.0510     0.0460 hn         1 4LJ       0.394000
@<TRIPOS>BOND
     1     1     2 1   
     2     2     3 1   
     3     2     6 1   
     4     2     7 1   
     5     3     4 1   
     6     3     8 1   
     7     3     9 1   
     8     4     5 1   
     9     4    10 1   
    10     4    11 1   
    11     5    12 1   
    12     5    13 1   
@<TRIPOS>SUBSTRUCTURE
     1 4LJ         1 TEMP              0 ****  ****    0 ROOT
