@<TRIPOS>MOLECULE
4LJ
   13    12     1     0     0
SMALL
bcc


@<TRIPOS>ATOM
      1 BR          -1.5260     0.0190    -0.0410 br         1 4LJ      -0.192400
      2 C1           0.2570    -0.8210     0.0420 c3         1 4LJ       0.011000
      3 C2           1.3610     0.2120    -0.0160 c3         1 4LJ      -0.081400
      4 C3           2.7260    -0.4680     0.0480 c3         1 4LJ       0.146800
      5 N1           3.7850     0.5270    -0.0180 n8         1 4LJ      -0.882800
      6 H1           0.2790    -1.3900     0.9700 h1         1 4LJ       0.069200
      7 H2           0.3030    -1.5130    -0.7980 h1         1 4LJ       0.069200
      8 H3           1.2940     0.7930    -0.9390 hc         1 4LJ       0.063700
      9 H4           1.2630     0.9100     0.8190 hc         1 4LJ       0.063700
     10 H5           2.7700    -1.1000     0.9470 h1         1 4LJ       0.027700
     11 H6           2.8330    -1.1410    -0.8060 h1         1 4LJ       0.027700
     12 H7           3.7790     1.0760     0.8330 hn         1 4LJ       0.338800
     13 H8           4.6830     0.0600    -0.0310 hn         1 4LJ       0.338800
@<TRIPOS>BOND
     1     1     2 1   
     2     2     3 1   
     3     2     6 1   
     4     2     7 1   
     5     3     4 1   
     6     3     8 1   
     7     3     9 1   
     8     4     5 1   
     9     4    10 1   
    10     4    11 1   
    11     5    12 1   
    12     5    13 1   
@<TRIPOS>SUBSTRUCTURE
     1 4LJ         1 TEMP              0 ****  ****    0 ROOT
