@<TRIPOS>MOLECULE
4LK
   51    55     1     0     0
SMALL
No Charge or Current Charge


@<TRIPOS>ATOM
      1 C25         -6.4670    -1.0060    -1.9990 ca         1 4LK      -0.108000
      2 C24         -6.8940    -0.4650    -0.7750 ca         1 4LK      -0.103000
      3 C26         -5.2410    -0.6050    -2.5540 ca         1 4LK      -0.103000
      4 C23         -6.0910     0.4710    -0.1000 ca         1 4LK      -0.096500
      5 C27         -4.4360     0.3320    -1.8820 ca         1 4LK      -0.096500
      6 C5           3.5620    -0.4500    -1.3000 ca         1 4LK      -0.178000
      7 C6           2.1860    -0.6890    -1.1280 ca         1 4LK      -0.056000
      8 C18         -2.1440     2.8160     0.2480 cc         1 4LK      -0.192000
      9 C3           3.7100     0.3780     0.9690 ca         1 4LK      -0.175000
     10 C19         -3.2060     3.7310     0.1580 cc         1 4LK       0.234900
     11 C22         -4.8480     0.8620    -0.6390 ca         1 4LK       0.021800
     12 C4           4.3320     0.1400    -0.2760 ca         1 4LK       0.040000
     13 C13          1.5570    -0.3860     0.0920 ca         1 4LK       0.198000
     14 C2           2.3360     0.1430     1.1440 ca         1 4LK       0.229000
     15 C17         -2.6960     1.5640     0.1830 cd         1 4LK      -0.157900
     16 C28         -0.2290    -1.9730     0.3590 cc         1 4LK      -0.105000
     17 C16         -1.9430     0.3150     0.3080 cd         1 4LK       0.312900
     18 C29         -1.5850    -2.1450     0.5580 cd         1 4LK      -0.026100
     19 C32         -2.5460    -1.0270     0.5870 c          1 4LK       0.475000
     20 C11          6.7210     0.0320     0.5680 c          1 4LK       0.703100
     21 C8           6.3870     0.5100    -1.7330 c5         1 4LK       0.059000
     22 C9           7.8360     0.8240    -1.2760 c5         1 4LK       0.143600
     23 C31         -1.2380    -4.5860     0.7570 c3         1 4LK       0.137900
     24 N20         -4.3860     3.1710    -0.0200 nd         1 4LK      -0.504800
     25 N15         -0.6180     0.4960     0.1900 nc         1 4LK      -0.341400
     26 N21         -4.0740     1.8190     0.0250 na         1 4LK       0.244000
     27 N14          0.1860    -0.6350     0.2460 na         1 4LK      -0.300300
     28 N7           5.7620     0.2300    -0.4340 n          1 4LK      -0.256400
     29 O33         -3.7290    -1.2200     0.8590 o          1 4LK      -0.502100
     30 O10          7.9610     0.2460     0.0440 os         1 4LK      -0.402100
     31 O30         -2.0850    -3.4200     0.7540 os         1 4LK      -0.293100
     32 F1           1.7760     0.4140     2.3480 f          1 4LK      -0.149000
     33 H1          -7.0900    -1.7300    -2.5210 ha         1 4LK       0.114000
     34 H2          -7.8480    -0.7700    -0.3490 ha         1 4LK       0.114500
     35 H3          -4.9150    -1.0160    -3.5080 ha         1 4LK       0.114500
     36 H4          -6.4280     0.8900     0.8460 ha         1 4LK       0.130000
     37 H5          -3.4960     0.6480    -2.3290 ha         1 4LK       0.130000
     38 H6           4.0230    -0.7260    -2.2460 ha         1 4LK       0.124000
     39 H7           1.6050    -1.1200    -1.9390 ha         1 4LK       0.130000
     40 H8          -1.1020     3.0890     0.3830 ha         1 4LK       0.151000
     41 H9           4.2730     0.7810     1.8050 ha         1 4LK       0.170000
     42 H10         -3.1410     4.8100     0.1880 h4         1 4LK       0.038100
     43 H11          0.5310    -2.7470     0.3270 h4         1 4LK       0.214000
     44 H12          5.9200     1.3600    -2.2470 h1         1 4LK       0.068200
     45 H13          8.5990     0.4110    -1.9490 h1         1 4LK       0.076200
     46 H14         -0.7250    -4.7000    -0.2070 h1         1 4LK       0.043033
     47 H15         -0.4860    -4.5220     1.5540 h1         1 4LK       0.043033
     48 H16         -1.8370    -5.4880     0.9290 h1         1 4LK       0.043033
     49 H17          6.3560    -0.3690    -2.3890 h1         1 4LK       0.068200
     50 H18          7.9900     1.9090    -1.1950 h1         1 4LK       0.076200
     51 O12          6.5140    -0.3120     1.7230 o          1 4LK      -0.503000
@<TRIPOS>BOND
     1     1     2 ar  
     2     1     3 ar  
     3     1    33 1   
     4     2     4 ar  
     5     2    34 1   
     6     3     5 ar  
     7     3    35 1   
     8     4    11 ar  
     9     4    36 1   
    10     5    11 ar  
    11     5    37 1   
    12     6     7 ar  
    13     6    12 ar  
    14     6    38 1   
    15     7    13 ar  
    16     7    39 1   
    17     8    10 1   
    18     8    15 2   
    19     8    40 1   
    20     9    12 ar  
    21     9    14 ar  
    22     9    41 1   
    23    10    24 2   
    24    10    42 1   
    25    11    26 1   
    26    12    28 1   
    27    13    14 ar  
    28    13    27 1   
    29    14    32 1   
    30    15    17 1   
    31    15    26 1   
    32    16    18 2   
    33    16    27 1   
    34    16    43 1   
    35    17    19 1   
    36    17    25 2   
    37    18    19 1   
    38    18    31 1   
    39    19    29 2   
    40    20    28 1   
    41    20    30 1   
    42    20    51 2   
    43    21    22 1   
    44    21    28 1   
    45    21    44 1   
    46    21    49 1   
    47    22    30 1   
    48    22    45 1   
    49    22    50 1   
    50    23    31 1   
    51    23    46 1   
    52    23    47 1   
    53    23    48 1   
    54    24    26 1   
    55    25    27 1   
@<TRIPOS>SUBSTRUCTURE
     1 4LK         1 TEMP              0 ****  ****    0 ROOT
