@<TRIPOS>MOLECULE
4LK
   51    55     1     0     0
SMALL
abcg2


@<TRIPOS>ATOM
      1 C25         -5.7440    -0.7380    -2.7290 ca         1 4LK      -0.108000
      2 C24         -6.4880    -0.2000    -1.6870 ca         1 4LK      -0.103000
      3 C26         -4.3860    -0.4640    -2.8200 ca         1 4LK      -0.103000
      4 C23         -5.8790     0.5950    -0.7280 ca         1 4LK      -0.096500
      5 C27         -3.7710     0.3460    -1.8760 ca         1 4LK      -0.096500
      6 C5           3.4540    -0.7210    -1.2780 ca         1 4LK      -0.178000
      7 C6           2.1140    -0.9540    -1.0290 ca         1 4LK      -0.056000
      8 C18         -2.5010     2.5650     1.5740 cc         1 4LK      -0.192000
      9 C3           3.5670     0.7060     0.6610 ca         1 4LK      -0.175000
     10 C19         -3.6170     3.3850     1.3500 cc         1 4LK       0.234900
     11 C22         -4.5200     0.8590    -0.8260 ca         1 4LK       0.021800
     12 C4           4.1970     0.1100    -0.4350 ca         1 4LK       0.040000
     13 C13          1.4890    -0.3820     0.0660 ca         1 4LK       0.198000
     14 C2           2.2380     0.4390     0.8950 ca         1 4LK       0.229000
     15 C17         -2.7200     1.4600     0.7830 cd         1 4LK      -0.157900
     16 C28         -0.3080    -1.9090     0.5650 cc         1 4LK      -0.105000
     17 C16         -1.9230     0.2370     0.6660 cd         1 4LK       0.312900
     18 C29         -1.6160    -2.1560     0.8470 cd         1 4LK      -0.026100
     19 C32         -2.5430    -1.0490     0.9530 c          1 4LK       0.475000
     20 C11          6.4980     0.7320     0.1670 c          1 4LK       0.703100
     21 C8           6.1400    -0.0330    -1.9940 c5         1 4LK       0.059000
     22 C9           7.5050     0.6260    -1.8640 c5         1 4LK       0.143600
     23 C31         -1.2720    -4.4790     1.0420 c3         1 4LK       0.137900
     24 N20         -4.4510     2.8380     0.4870 nd         1 4LK      -0.504800
     25 N15         -0.6640     0.4100     0.3900 nc         1 4LK      -0.341400
     26 N21         -3.9000     1.6730     0.1470 na         1 4LK       0.244000
     27 N14          0.1220    -0.6360     0.3500 na         1 4LK      -0.300300
     28 N7           5.5350     0.3500    -0.7300 n          1 4LK      -0.256400
     29 O33         -3.7210    -1.1750     1.2670 o          1 4LK      -0.502100
     30 O10          7.6740     0.8090    -0.4550 os         1 4LK      -0.402100
     31 O30         -2.1390    -3.3580     1.0840 os         1 4LK      -0.293100
     32 F1           1.6530     0.9900     1.9590 f          1 4LK      -0.149000
     33 H1          -6.2230    -1.3630    -3.4720 ha         1 4LK       0.114000
     34 H2          -7.5470    -0.4080    -1.6120 ha         1 4LK       0.114500
     35 H3          -3.8030    -0.8670    -3.6370 ha         1 4LK       0.114500
     36 H4          -6.4530     1.0020     0.0940 ha         1 4LK       0.130000
     37 H5          -2.7210     0.5890    -1.9740 ha         1 4LK       0.130000
     38 H6           3.9060    -1.1920    -2.1380 ha         1 4LK       0.124000
     39 H7           1.5490    -1.5890    -1.6980 ha         1 4LK       0.130000
     40 H8          -1.6680     2.7320     2.2350 ha         1 4LK       0.151000
     41 H9           4.0880     1.3670     1.3340 ha         1 4LK       0.170000
     42 H10         -3.8380     4.3490     1.7820 h4         1 4LK       0.038100
     43 H11          0.4550    -2.6720     0.5130 h4         1 4LK       0.214000
     44 H12          5.5770     0.3550    -2.8410 h1         1 4LK       0.068200
     45 H13          8.3160     0.0080    -2.2410 h1         1 4LK       0.076200
     46 H14         -0.8280    -4.6060     0.0510 h1         1 4LK       0.043033
     47 H15         -0.4730    -4.3960     1.7830 h1         1 4LK       0.043033
     48 H16         -1.8800    -5.3490     1.2720 h1         1 4LK       0.043033
     49 H17          6.2100    -1.1200    -2.0850 h1         1 4LK       0.068200
     50 H18          7.5360     1.6010    -2.3530 h1         1 4LK       0.076200
     51 O12          6.3750     0.9650     1.3410 o          1 4LK      -0.503000
@<TRIPOS>BOND
     1     1     2 ar  
     2     1     3 ar  
     3     1    33 1   
     4     2     4 ar  
     5     2    34 1   
     6     3     5 ar  
     7     3    35 1   
     8     4    11 ar  
     9     4    36 1   
    10     5    11 ar  
    11     5    37 1   
    12     6     7 ar  
    13     6    12 ar  
    14     6    38 1   
    15     7    13 ar  
    16     7    39 1   
    17     8    10 1   
    18     8    15 2   
    19     8    40 1   
    20     9    12 ar  
    21     9    14 ar  
    22     9    41 1   
    23    10    24 2   
    24    10    42 1   
    25    11    26 1   
    26    12    28 1   
    27    13    14 ar  
    28    13    27 1   
    29    14    32 1   
    30    15    17 1   
    31    15    26 1   
    32    16    18 2   
    33    16    27 1   
    34    16    43 1   
    35    17    19 1   
    36    17    25 2   
    37    18    19 1   
    38    18    31 1   
    39    19    29 2   
    40    20    28 1   
    41    20    30 1   
    42    20    51 2   
    43    21    22 1   
    44    21    28 1   
    45    21    44 1   
    46    21    49 1   
    47    22    30 1   
    48    22    45 1   
    49    22    50 1   
    50    23    31 1   
    51    23    46 1   
    52    23    47 1   
    53    23    48 1   
    54    24    26 1   
    55    25    27 1   
@<TRIPOS>SUBSTRUCTURE
     1 4LK         1 TEMP              0 ****  ****    0 ROOT
