@<TRIPOS>MOLECULE
4LL
   32    33     1     0     0
SMALL
No Charge or Current Charge


@<TRIPOS>ATOM
      1 C01          6.6570     0.7980     0.0080 c3         1 4LL      -0.089100
      2 C02          5.4830    -0.1980     0.0800 c3         1 4LL      -0.072400
      3 C03          4.1040     0.4800    -0.0840 c3         1 4LL      -0.095400
      4 C04          2.9320    -0.5190    -0.0120 c3         1 4LL       0.226800
      5 N05          1.6540     0.1780    -0.1760 nu         1 4LL      -0.932100
      6 C06          0.4040    -0.3620    -0.1380 ca         1 4LL       0.631900
      7 N07         -0.5230     0.5920    -0.0740 nb         1 4LL      -0.797000
      8 C08         -1.8280     0.2030    -0.0330 ca         1 4LL       0.250000
      9 C09         -2.2050    -1.1660    -0.0580 ca         1 4LL      -0.090000
     10 C10         -3.5650    -1.5350    -0.0140 ca         1 4LL      -0.119000
     11 C11         -4.5630    -0.5480     0.0550 ca         1 4LL      -0.086000
     12 C12         -4.2060     0.8100     0.0800 ca         1 4LL      -0.151000
     13 C13         -2.8520     1.1800     0.0360 ca         1 4LL       0.149100
     14 O14         -2.5050     2.5010     0.0600 oh         1 4LL      -0.533100
     15 C15         -1.2060    -2.1530    -0.1280 ca         1 4LL      -0.032000
     16 C16          0.1320    -1.7360    -0.1700 ca         1 4LL      -0.203000
     17 H01          6.6700     1.3140    -0.9600 hc         1 4LL       0.035033
     18 H01A         6.5770     1.5500     0.8020 hc         1 4LL       0.035033
     19 H01B         7.6120     0.2720     0.1290 hc         1 4LL       0.035033
     20 H02          5.6100    -0.9560    -0.7030 hc         1 4LL       0.040200
     21 H02A         5.5180    -0.7220     1.0430 hc         1 4LL       0.040200
     22 H03          3.9810     1.2380     0.7000 hc         1 4LL       0.048700
     23 H03A         4.0730     1.0030    -1.0480 hc         1 4LL       0.048700
     24 H04          3.0520    -1.2750    -0.8010 h1         1 4LL       0.040700
     25 H04A         2.9550    -1.0350     0.9580 h1         1 4LL       0.040700
     26 HN05         1.6370     1.1880    -0.0880 hn         1 4LL       0.490000
     27 H10         -3.8490    -2.5850    -0.0330 ha         1 4LL       0.114000
     28 H11         -5.6110    -0.8370     0.0890 ha         1 4LL       0.114000
     29 H12         -4.9770     1.5750     0.1330 ha         1 4LL       0.128000
     30 HO14        -1.5190     2.4940     0.0190 ho         1 4LL       0.493000
     31 H15         -1.4580    -3.2110    -0.1500 ha         1 4LL       0.117000
     32 H16          0.9360    -2.4620    -0.2260 ha         1 4LL       0.122000
@<TRIPOS>BOND
     1     1     2 1   
     2     1    17 1   
     3     1    18 1   
     4     1    19 1   
     5     2     3 1   
     6     2    20 1   
     7     2    21 1   
     8     3     4 1   
     9     3    22 1   
    10     3    23 1   
    11     4     5 1   
    12     4    24 1   
    13     4    25 1   
    14     5     6 1   
    15     5    26 1   
    16     6     7 ar  
    17     6    16 ar  
    18     7     8 ar  
    19     8     9 ar  
    20     8    13 ar  
    21     9    10 ar  
    22     9    15 ar  
    23    10    11 ar  
    24    10    27 1   
    25    11    12 ar  
    26    11    28 1   
    27    12    13 ar  
    28    12    29 1   
    29    13    14 1   
    30    14    30 1   
    31    15    16 ar  
    32    15    31 1   
    33    16    32 1   
@<TRIPOS>SUBSTRUCTURE
     1 4LL         1 TEMP              0 ****  ****    0 ROOT
