@<TRIPOS>MOLECULE
4LL
   32    33     1     0     0
SMALL
bcc


@<TRIPOS>ATOM
      1 C01          6.5640     0.6340     0.3280 c3         1 4LL      -0.089100
      2 C02          5.3990    -0.2570    -0.0850 c3         1 4LL      -0.072400
      3 C03          4.0830     0.5050    -0.2070 c3         1 4LL      -0.095400
      4 C04          2.8840    -0.4300    -0.2240 c3         1 4LL       0.226800
      5 N05          1.6630     0.3210    -0.4220 nu         1 4LL      -0.876900
      6 C06          0.4220    -0.1820    -0.2390 ca         1 4LL       0.697200
      7 N07         -0.5840     0.6670    -0.2090 nb         1 4LL      -0.797000
      8 C08         -1.8390     0.1930    -0.0700 ca         1 4LL       0.380600
      9 C09         -2.1580    -1.1730     0.0430 ca         1 4LL      -0.155300
     10 C10         -3.5040    -1.5750     0.1800 ca         1 4LL      -0.137000
     11 C11         -4.4920    -0.6250     0.2040 ca         1 4LL      -0.104000
     12 C12         -4.1880     0.7470     0.0940 ca         1 4LL      -0.169000
     13 C13         -2.8840     1.1560    -0.0380 ca         1 4LL       0.083800
     14 O14         -2.5570     2.4550    -0.1400 oh         1 4LL      -0.494100
     15 C15         -1.0560    -2.0650     0.0170 ca         1 4LL      -0.050000
     16 C16          0.2120    -1.5920    -0.1170 ca         1 4LL      -0.286300
     17 H01          6.8330     1.3290    -0.4700 hc         1 4LL       0.035033
     18 H01A         6.3160     1.2250     1.2110 hc         1 4LL       0.035033
     19 H01B         7.4500     0.0450     0.5650 hc         1 4LL       0.035033
     20 H02          5.6300    -0.7250    -1.0460 hc         1 4LL       0.040200
     21 H02A         5.2870    -1.0750     0.6330 hc         1 4LL       0.040200
     22 H03          3.9820     1.2090     0.6240 hc         1 4LL       0.048700
     23 H03A         4.0860     1.1020    -1.1240 hc         1 4LL       0.048700
     24 H04          3.0090    -1.1600    -1.0290 h1         1 4LL       0.040700
     25 H04A         2.8540    -0.9950     0.7160 h1         1 4LL       0.040700
     26 HN05         1.7290     1.3230    -0.3330 hn         1 4LL       0.434800
     27 H10         -3.7400    -2.6270     0.2730 ha         1 4LL       0.132000
     28 H11         -5.5280    -0.9220     0.3070 ha         1 4LL       0.132000
     29 H12         -4.9840     1.4800     0.1120 ha         1 4LL       0.146000
     30 HO14        -1.5910     2.4970    -0.2290 ho         1 4LL       0.454000
     31 H15         -1.2280    -3.1310     0.1010 ha         1 4LL       0.135000
     32 H16          1.0490    -2.2760    -0.1260 ha         1 4LL       0.140000
@<TRIPOS>BOND
     1     1     2 1   
     2     1    17 1   
     3     1    18 1   
     4     1    19 1   
     5     2     3 1   
     6     2    20 1   
     7     2    21 1   
     8     3     4 1   
     9     3    22 1   
    10     3    23 1   
    11     4     5 1   
    12     4    24 1   
    13     4    25 1   
    14     5     6 1   
    15     5    26 1   
    16     6     7 ar  
    17     6    16 ar  
    18     7     8 ar  
    19     8     9 ar  
    20     8    13 ar  
    21     9    10 ar  
    22     9    15 ar  
    23    10    11 ar  
    24    10    27 1   
    25    11    12 ar  
    26    11    28 1   
    27    12    13 ar  
    28    12    29 1   
    29    13    14 1   
    30    14    30 1   
    31    15    16 ar  
    32    15    31 1   
    33    16    32 1   
@<TRIPOS>SUBSTRUCTURE
     1 4LL         1 TEMP              0 ****  ****    0 ROOT
