@<TRIPOS>MOLECULE
4LO
   80    84     1     0     0
SMALL
No Charge or Current Charge


@<TRIPOS>ATOM
      1 C1          -3.1810     2.6660     2.1790 c3         1 4LO      -0.107600
      2 C2          -3.0070     2.9180     0.6640 c3         1 4LO       0.174300
      3 C3          -2.0960     4.1260     0.3780 c3         1 4LO      -0.107600
      4 C13         -8.8320    -0.2330    -0.7470 c6         1 4LO       0.163800
      5 C14         -7.3010    -0.1350    -0.9820 c6         1 4LO      -0.106400
      6 C15         -4.1840    -1.9960    -0.5150 ca         1 4LO      -0.048300
      7 C16         -4.7700    -3.3830    -0.7660 c3         1 4LO      -0.048800
      8 C17         -2.7940    -1.8220    -0.6710 ca         1 4LO      -0.130000
      9 C18         -2.1820    -0.5750    -0.4520 ca         1 4LO       0.308000
     10 C20          0.3370    -1.1600    -0.5930 ca         1 4LO       0.432900
     11 C22          2.6020    -1.1920    -0.8170 ca         1 4LO       0.483900
     12 C24          4.1890     0.7460    -1.3320 ca         1 4LO       0.395000
     13 C25          3.4040     1.5230    -2.2050 ca         1 4LO      -0.134000
     14 C26          3.7800     2.8340    -2.5380 ca         1 4LO      -0.038000
     15 C27          4.9550     3.3770    -2.0020 ca         1 4LO      -0.149000
     16 C28          5.7550     2.6100    -1.1410 ca         1 4LO      -0.003000
     17 C29          5.3790     1.2890    -0.8080 ca         1 4LO      -0.304500
     18 O4          -2.3630     1.7700     0.0770 os         1 4LO      -0.379100
     19 C5          -2.9840     0.5350    -0.0970 ca         1 4LO       0.045100
     20 C6          -4.3780     0.3690     0.0490 ca         1 4LO      -0.111000
     21 C7          -4.9900    -0.8880    -0.1440 ca         1 4LO      -0.090300
     22 C8          -6.5210    -1.0020     0.0450 c6         1 4LO      -0.011400
     23 C9          -6.9610    -0.6360     1.4900 c6         1 4LO      -0.106400
     24 C10         -8.5030    -0.7180     1.6410 c6         1 4LO       0.163800
     25 N11         -9.2100     0.1390     0.6460 n3         1 4LO      -0.716600
     26 N21          1.4680    -0.4760    -0.8380 nb         1 4LO      -0.335000
     27 N23          3.8100    -0.5580    -1.0270 nu         1 4LO      -0.968900
     28 S30          6.4130     0.3560     0.3340 sy         1 4LO       1.020500
     29 O31          6.3910    -1.0580    -0.0700 o          1 4LO      -0.531500
     30 O32          7.6870     1.0660     0.5120 o          1 4LO      -0.531500
     31 C33          5.5070     0.4540     1.9210 c3         1 4LO      -0.248700
     32 C34          6.2090    -0.3770     3.0260 c3         1 4LO      -0.079600
     33 C35          5.2620     1.9190     2.3680 c3         1 4LO      -0.079600
     34 C36          2.5650    -2.5560    -0.5210 ca         1 4LO      -0.327000
     35 C37          3.5930    -3.5380    -0.4090 cc         1 4LO      -0.129100
     36 N38          2.9350    -4.7200    -0.0900 na         1 4LO       0.005500
     37 N39          1.5470    -4.5460     0.0100 nc         1 4LO      -0.276400
     38 C40          1.3710    -3.1860    -0.2650 ca         1 4LO       0.040000
     39 N41          0.2270    -2.4770    -0.2990 nb         1 4LO      -0.240000
     40 H1          -3.6060     3.5520     2.6660 hc         1 4LO       0.044700
     41 H2          -3.8550     1.8240     2.3700 hc         1 4LO       0.044700
     42 H3          -2.2150     2.4480     2.6500 hc         1 4LO       0.044700
     43 H4          -3.9820     3.1110     0.1980 h1         1 4LO       0.039700
     44 H5          -1.1010     3.9790     0.8160 hc         1 4LO       0.044700
     45 H6          -1.9830     4.2730    -0.7020 hc         1 4LO       0.044700
     46 H7          -2.5270     5.0410     0.8020 hc         1 4LO       0.044700
     47 H8          -9.7140     2.1650     0.2130 h1         1 4LO       0.028033
     48 H9          -9.4770     1.8150     1.9370 h1         1 4LO       0.028033
     49 H10         -8.0720     1.9470     0.8570 h1         1 4LO       0.028033
     50 H11         -9.3530     0.4090    -1.4730 h1         1 4LO       0.049950
     51 H12         -9.1520    -1.2650    -0.9550 h1         1 4LO       0.049950
     52 H13         -7.0670    -0.4720    -2.0010 hc         1 4LO       0.046200
     53 H14         -6.9840     0.9140    -0.9270 hc         1 4LO       0.046200
     54 H15         -5.5130    -3.3580    -1.5720 hc         1 4LO       0.043367
     55 H16         -4.0020    -4.1080    -1.0580 hc         1 4LO       0.043367
     56 H17         -5.2570    -3.7750     0.1360 hc         1 4LO       0.043367
     57 H18         -2.1920    -2.6680    -0.9810 ha         1 4LO       0.159000
     58 H19          2.5050     1.1060    -2.6440 ha         1 4LO       0.149000
     59 H20          3.1630     3.4230    -3.2140 ha         1 4LO       0.120000
     60 H21          5.2490     4.3930    -2.2560 ha         1 4LO       0.124000
     61 H22          6.6620     3.0540    -0.7330 ha         1 4LO       0.143000
     62 H23         -5.0040     1.2150     0.3100 ha         1 4LO       0.117000
     63 H24         -6.8440    -2.0370    -0.1180 hc         1 4LO       0.052700
     64 H25         -6.4880    -1.3240     2.2040 hc         1 4LO       0.046200
     65 H26         -6.6160     0.3700     1.7620 hc         1 4LO       0.046200
     66 H27         -8.8120    -1.7660     1.5130 h1         1 4LO       0.049950
     67 H28         -8.7840    -0.4310     2.6660 h1         1 4LO       0.049950
     68 H30         -0.5740     0.6240    -0.5950 hn         1 4LO       0.524000
     69 H31          4.5970    -1.1510    -0.7680 hn         1 4LO       0.534000
     70 H32          4.5320    -0.0060     1.7200 h1         1 4LO       0.094700
     71 H33          7.2060     0.0240     3.2470 hc         1 4LO       0.054533
     72 H34          5.6230    -0.3610     3.9530 hc         1 4LO       0.054533
     73 H35          6.3200    -1.4240     2.7200 hc         1 4LO       0.054533
     74 H36          4.6840     2.4720     1.6180 hc         1 4LO       0.054533
     75 H37          4.6940     1.9460     3.3060 hc         1 4LO       0.054533
     76 H38          6.2100     2.4480     2.5310 hc         1 4LO       0.054533
     77 H39          4.6730    -3.5110    -0.5240 h4         1 4LO       0.240000
     78 H40          3.3600    -5.6300     0.0630 hn         1 4LO       0.378000
     79 N19         -0.8010    -0.3690    -0.6060 nu         1 4LO      -0.918900
     80 C12         -9.1080     1.5920     0.9270 c3         1 4LO       0.155100
@<TRIPOS>BOND
     1     1     2 1   
     2     1    40 1   
     3     1    41 1   
     4     1    42 1   
     5     2     3 1   
     6     2    18 1   
     7     2    43 1   
     8     3    44 1   
     9     3    45 1   
    10     3    46 1   
    11     4     5 1   
    12     4    25 1   
    13     4    50 1   
    14     4    51 1   
    15     5    22 1   
    16     5    52 1   
    17     5    53 1   
    18     6     7 1   
    19     6     8 ar  
    20     6    21 ar  
    21     7    54 1   
    22     7    55 1   
    23     7    56 1   
    24     8     9 ar  
    25     8    57 1   
    26     9    19 ar  
    27     9    79 1   
    28    10    26 ar  
    29    10    39 ar  
    30    10    79 1   
    31    11    26 ar  
    32    11    27 1   
    33    11    34 ar  
    34    12    13 ar  
    35    12    17 ar  
    36    12    27 1   
    37    13    14 ar  
    38    13    58 1   
    39    14    15 ar  
    40    14    59 1   
    41    15    16 ar  
    42    15    60 1   
    43    16    17 ar  
    44    16    61 1   
    45    17    28 1   
    46    18    19 1   
    47    19    20 ar  
    48    20    21 ar  
    49    20    62 1   
    50    21    22 1   
    51    22    23 1   
    52    22    63 1   
    53    23    24 1   
    54    23    64 1   
    55    23    65 1   
    56    24    25 1   
    57    24    66 1   
    58    24    67 1   
    59    25    80 1   
    60    27    69 1   
    61    28    29 2   
    62    28    30 2   
    63    28    31 1   
    64    31    32 1   
    65    31    33 1   
    66    31    70 1   
    67    32    71 1   
    68    32    72 1   
    69    32    73 1   
    70    33    74 1   
    71    33    75 1   
    72    33    76 1   
    73    34    35 2   
    74    34    38 ar  
    75    35    36 1   
    76    35    77 1   
    77    36    37 1   
    78    36    78 1   
    79    37    38 2   
    80    38    39 ar  
    81    47    80 1   
    82    48    80 1   
    83    49    80 1   
    84    68    79 1   
@<TRIPOS>SUBSTRUCTURE
     1 4LO         1 TEMP              0 ****  ****    0 ROOT
