@<TRIPOS>MOLECULE
4LO
   80    84     1     0     0
SMALL
bcc


@<TRIPOS>ATOM
      1 C1          -1.6650     2.3870     1.4990 c3         1 4LO      -0.107600
      2 C2          -2.5990     2.7750     0.3660 c3         1 4LO       0.151100
      3 C3          -2.2410     4.1140    -0.2410 c3         1 4LO      -0.107600
      4 C13         -8.7860    -0.6470    -0.7070 c6         1 4LO       0.163800
      5 C14         -7.2880    -0.5250    -0.9920 c6         1 4LO      -0.106400
      6 C15         -4.1350    -1.9540     0.0270 ca         1 4LO      -0.048300
      7 C16         -4.6490    -3.3450     0.2860 c3         1 4LO      -0.048800
      8 C17         -2.7700    -1.7840    -0.1980 ca         1 4LO      -0.148000
      9 C18         -2.2130    -0.5260    -0.4250 ca         1 4LO       0.169600
     10 C20          0.2180    -1.0830    -0.6550 ca         1 4LO       0.958900
     11 C22          2.5070    -1.0100    -0.8630 ca         1 4LO       0.812200
     12 C24          3.9080     1.0240    -1.0460 ca         1 4LO       0.256600
     13 C25          3.0220     1.9020    -1.6700 ca         1 4LO      -0.152000
     14 C26          3.3050     3.2560    -1.7340 ca         1 4LO      -0.056000
     15 C27          4.4730     3.7730    -1.1930 ca         1 4LO      -0.167000
     16 C28          5.3640     2.9170    -0.5690 ca         1 4LO      -0.021000
     17 C29          5.0810     1.5600    -0.4870 ca         1 4LO      -0.304500
     18 O4          -2.5450     1.8100    -0.7010 os         1 4LO      -0.355900
     19 C5          -3.0760     0.5810    -0.4410 ca         1 4LO       0.045100
     20 C6          -4.4300     0.4080    -0.2340 ca         1 4LO      -0.129000
     21 C7          -4.9870    -0.8460     0.0090 ca         1 4LO      -0.090300
     22 C8          -6.4750    -0.9620     0.2320 c6         1 4LO      -0.011400
     23 C9          -6.9440    -0.1840     1.4670 c6         1 4LO      -0.106400
     24 C10         -8.4570    -0.3230     1.6370 c6         1 4LO       0.163800
     25 N11         -9.2260     0.0800     0.4720 n3         1 4LO      -0.716600
     26 N21          1.3710    -0.3720    -0.8170 nb         1 4LO      -0.861000
     27 N23          3.6850    -0.3510    -0.9910 nu         1 4LO      -0.775300
     28 S30          6.2430     0.5330     0.3830 sy         1 4LO       1.051300
     29 O31          6.4190    -0.7120    -0.3820 o          1 4LO      -0.602300
     30 O32          7.4390     1.3200     0.6690 o          1 4LO      -0.602300
     31 C33          5.4240     0.1290     1.9440 c3         1 4LO      -0.137900
     32 C34          6.2800    -0.8940     2.6790 c3         1 4LO      -0.079600
     33 C35          5.1860     1.3890     2.7600 c3         1 4LO      -0.079600
     34 C36          2.5160    -2.4260    -0.7480 ca         1 4LO      -0.457600
     35 C37          3.4340    -3.4650    -0.7300 cc         1 4LO      -0.079100
     36 N38          2.7060    -4.5650    -0.5640 na         1 4LO       0.055800
     37 N39          1.3870    -4.3650    -0.4660 nc         1 4LO      -0.276400
     38 C40          1.2580    -3.0510    -0.5760 ca         1 4LO       0.368300
     39 N41          0.0870    -2.3790    -0.5310 nb         1 4LO      -0.766000
     40 H1          -1.7510     3.1090     2.3110 hc         1 4LO       0.044700
     41 H2          -1.9050     1.4040     1.9060 hc         1 4LO       0.044700
     42 H3          -0.6240     2.3800     1.1670 hc         1 4LO       0.044700
     43 H4          -3.6260     2.8150     0.7490 h1         1 4LO       0.039700
     44 H5          -1.2230     4.1070    -0.6330 hc         1 4LO       0.044700
     45 H6          -2.9220     4.3830    -1.0480 hc         1 4LO       0.044700
     46 H7          -2.3000     4.8910     0.5200 hc         1 4LO       0.044700
     47 H8          -9.9470     1.7540    -0.5410 h1         1 4LO       0.028033
     48 H9          -9.6560     1.9940     1.1790 h1         1 4LO       0.028033
     49 H10         -8.3020     1.9870     0.0490 h1         1 4LO       0.028033
     50 H11         -9.3660    -0.3080    -1.5700 h1         1 4LO       0.049950
     51 H12         -9.0300    -1.7060    -0.5630 h1         1 4LO       0.049950
     52 H13         -7.0270    -1.1440    -1.8550 hc         1 4LO       0.046200
     53 H14         -7.0370     0.5060    -1.2620 hc         1 4LO       0.046200
     54 H15         -5.3930    -3.6530    -0.4500 hc         1 4LO       0.043367
     55 H16         -3.8380    -4.0710     0.2530 hc         1 4LO       0.043367
     56 H17         -5.1210    -3.4250     1.2680 hc         1 4LO       0.043367
     57 H18         -2.1200    -2.6450    -0.1860 ha         1 4LO       0.177000
     58 H19          2.1160     1.5240    -2.1140 ha         1 4LO       0.167000
     59 H20          2.6020     3.9140    -2.2280 ha         1 4LO       0.138000
     60 H21          4.6910     4.8300    -1.2540 ha         1 4LO       0.142000
     61 H22          6.2750     3.3070    -0.1370 ha         1 4LO       0.161000
     62 H23         -5.0700     1.2830    -0.2700 ha         1 4LO       0.135000
     63 H24         -6.7190    -2.0140     0.4140 hc         1 4LO       0.052700
     64 H25         -6.4390    -0.5580     2.3620 hc         1 4LO       0.046200
     65 H26         -6.6690     0.8720     1.3760 hc         1 4LO       0.046200
     66 H27         -8.6900    -1.3730     1.8490 h1         1 4LO       0.049950
     67 H28         -8.7980     0.2530     2.5020 h1         1 4LO       0.049950
     68 H30         -0.6420     0.7080    -0.7800 hn         1 4LO       0.468800
     69 H31          4.5190    -0.9230    -0.9810 hn         1 4LO       0.478800
     70 H32          4.4700    -0.3210     1.6540 h1         1 4LO       0.094700
     71 H33          7.2540    -0.4820     2.9390 hc         1 4LO       0.054533
     72 H34          5.7730    -1.1610     3.6050 hc         1 4LO       0.054533
     73 H35          6.4230    -1.8060     2.1030 hc         1 4LO       0.054533
     74 H36          4.5950     2.1320     2.2260 hc         1 4LO       0.054533
     75 H37          4.6330     1.1160     3.6580 hc         1 4LO       0.054533
     76 H38          6.1260     1.8430     3.0710 hc         1 4LO       0.054533
     77 H39          4.5080    -3.5010    -0.8220 h4         1 4LO       0.190000
     78 H40          3.0640    -5.5060    -0.5130 hn         1 4LO       0.327700
     79 N19         -0.8670    -0.2640    -0.6330 nu         1 4LO      -0.725300
     80 C12         -9.2670     1.5140     0.2790 c3         1 4LO       0.155100
@<TRIPOS>BOND
     1     1     2 1   
     2     1    40 1   
     3     1    41 1   
     4     1    42 1   
     5     2     3 1   
     6     2    18 1   
     7     2    43 1   
     8     3    44 1   
     9     3    45 1   
    10     3    46 1   
    11     4     5 1   
    12     4    25 1   
    13     4    50 1   
    14     4    51 1   
    15     5    22 1   
    16     5    52 1   
    17     5    53 1   
    18     6     7 1   
    19     6     8 ar  
    20     6    21 ar  
    21     7    54 1   
    22     7    55 1   
    23     7    56 1   
    24     8     9 ar  
    25     8    57 1   
    26     9    19 ar  
    27     9    79 1   
    28    10    26 ar  
    29    10    39 ar  
    30    10    79 1   
    31    11    26 ar  
    32    11    27 1   
    33    11    34 ar  
    34    12    13 ar  
    35    12    17 ar  
    36    12    27 1   
    37    13    14 ar  
    38    13    58 1   
    39    14    15 ar  
    40    14    59 1   
    41    15    16 ar  
    42    15    60 1   
    43    16    17 ar  
    44    16    61 1   
    45    17    28 1   
    46    18    19 1   
    47    19    20 ar  
    48    20    21 ar  
    49    20    62 1   
    50    21    22 1   
    51    22    23 1   
    52    22    63 1   
    53    23    24 1   
    54    23    64 1   
    55    23    65 1   
    56    24    25 1   
    57    24    66 1   
    58    24    67 1   
    59    25    80 1   
    60    27    69 1   
    61    28    29 2   
    62    28    30 2   
    63    28    31 1   
    64    31    32 1   
    65    31    33 1   
    66    31    70 1   
    67    32    71 1   
    68    32    72 1   
    69    32    73 1   
    70    33    74 1   
    71    33    75 1   
    72    33    76 1   
    73    34    35 2   
    74    34    38 ar  
    75    35    36 1   
    76    35    77 1   
    77    36    37 1   
    78    36    78 1   
    79    37    38 2   
    80    38    39 ar  
    81    47    80 1   
    82    48    80 1   
    83    49    80 1   
    84    68    79 1   
@<TRIPOS>SUBSTRUCTURE
     1 4LO         1 TEMP              0 ****  ****    0 ROOT
