@<TRIPOS>MOLECULE
4LP
   63    68     1     0     0
SMALL
abcg2


@<TRIPOS>ATOM
      1 C33         -0.3230     2.8850     1.7150 ca         1 4LP      -0.109000
      2 C32         -1.1070     1.9800     2.4200 ca         1 4LP      -0.109000
      3 C34         -0.7480     3.3500     0.4780 ca         1 4LP      -0.109000
      4 C31         -2.3050     1.5320     1.8860 ca         1 4LP      -0.090500
      5 C35         -1.9350     2.8890    -0.0720 ca         1 4LP      -0.090500
      6 C21          2.2360    -0.8070     1.4620 ca         1 4LP      -0.162000
      7 C22          0.9590    -1.3080     1.2460 ca         1 4LP      -0.050000
      8 C26         -5.4900     0.2310    -0.7950 cc         1 4LP      -0.179000
      9 C27         -5.8630     1.5790    -0.7050 cc         1 4LP       0.228900
     10 C9           2.0740     0.3610    -0.6680 ca         1 4LP      -0.188300
     11 C30         -2.7000     1.9740     0.6320 ca         1 4LP       0.033800
     12 C20          2.7650     0.0330     0.4990 ca         1 4LP       0.017000
     13 C6           0.2520    -0.9980     0.0970 ca         1 4LP       0.187000
     14 C7           0.8230    -0.1610    -0.8610 ca         1 4LP       0.262000
     15 C25         -4.1980     0.1900    -0.3100 cd         1 4LP      -0.159900
     16 C4          -1.3400    -2.8210    -0.0320 cc         1 4LP      -0.107000
     17 C24         -3.2460    -0.9150    -0.2290 cd         1 4LP       0.323900
     18 C3          -2.6310    -3.2510    -0.0760 cd         1 4LP      -0.029100
     19 C36         -3.7150    -2.2920    -0.1670 c          1 4LP       0.479000
     20 C13          4.1700     1.4110    -0.6310 c          1 4LP       0.567000
     21 C17          6.9050    -0.8480     0.5020 cx         1 4LP      -0.121400
     22 C18          7.1770    -0.7550     1.9730 cx         1 4LP      -0.121400
     23 C16          5.7680    -0.7400     1.4680 cx         1 4LP      -0.161700
     24 C10          2.9230     1.2670    -1.5100 c5         1 4LP      -0.063700
     25 C11          2.2990     2.6460    -1.7310 c3         1 4LP      -0.075600
     26 C12          3.3290     0.6320    -2.8440 c3         1 4LP      -0.075600
     27 C1          -2.0130    -5.5240     0.0230 c3         1 4LP       0.137900
     28 N28         -4.8940     2.3140    -0.1960 nd         1 4LP      -0.504800
     29 N23         -1.9900    -0.5770    -0.2000 nc         1 4LP      -0.366400
     30 N29         -3.8920     1.4710     0.0450 na         1 4LP       0.224000
     31 N5          -1.0690    -1.4890    -0.0840 na         1 4LP      -0.286300
     32 N14          3.9950     0.6710     0.5040 n          1 4LP      -0.211400
     33 O37         -4.8970    -2.6230    -0.1880 o          1 4LP      -0.510100
     34 O19          5.1500     2.0730    -0.8940 o          1 4LP      -0.512000
     35 O2          -3.0160    -4.5260    -0.0430 os         1 4LP      -0.293100
     36 F8           0.1470     0.1160    -1.9760 f          1 4LP      -0.147000
     37 H1           0.6140     3.2300     2.1310 ha         1 4LP       0.112000
     38 H2          -0.7880     1.6230     3.3890 ha         1 4LP       0.114000
     39 H3          -0.1480     4.0640    -0.0700 ha         1 4LP       0.114000
     40 H4          -2.9180     0.8260     2.4310 ha         1 4LP       0.128500
     41 H5          -2.2540     3.2250    -1.0500 ha         1 4LP       0.128500
     42 H6           2.7720    -1.0610     2.3660 ha         1 4LP       0.135000
     43 H7           0.5010    -1.9430     1.9940 ha         1 4LP       0.130000
     44 H8          -6.0710    -0.5870    -1.1800 ha         1 4LP       0.163000
     45 H9          -6.8000     2.0330    -0.9880 h4         1 4LP       0.039100
     46 H10         -0.4820    -3.4730     0.0290 h4         1 4LP       0.216000
     47 H12          7.0640    -1.8000     0.0120 hc         1 4LP       0.076950
     48 H13          7.5240    -1.6400     2.4910 hc         1 4LP       0.076950
     49 H14          7.5880     0.1720     2.3540 hc         1 4LP       0.076950
     50 H15          5.1930    -1.6450     1.6340 hc         1 4LP       0.079700
     51 H16          1.9980     3.1060    -0.7900 hc         1 4LP       0.051200
     52 H17          3.0130     3.3040    -2.2260 hc         1 4LP       0.051200
     53 H18          1.4170     2.5690    -2.3660 hc         1 4LP       0.051200
     54 H19          2.4610     0.5210    -3.4920 hc         1 4LP       0.051200
     55 H20          4.0510     1.2700    -3.3540 hc         1 4LP       0.051200
     56 H21          3.7770    -0.3530    -2.7040 hc         1 4LP       0.051200
     57 H22         -2.5290    -6.4810     0.0290 h1         1 4LP       0.042700
     58 H23         -1.3490    -5.4850    -0.8440 h1         1 4LP       0.042700
     59 H24         -1.4170    -5.4390     0.9350 h1         1 4LP       0.042700
     60 C15          4.9810     0.5400     1.5580 c3         1 4LP       0.135000
     61 H11          7.1360     0.0130    -0.1130 hc         1 4LP       0.076950
     62 H25          4.4660     0.6090     2.5190 h1         1 4LP       0.065700
     63 H26          5.6450     1.4020     1.4940 h1         1 4LP       0.065700
@<TRIPOS>BOND
     1     1     2 ar  
     2     1     3 ar  
     3     1    37 1   
     4     2     4 ar  
     5     2    38 1   
     6     3     5 ar  
     7     3    39 1   
     8     4    11 ar  
     9     4    40 1   
    10     5    11 ar  
    11     5    41 1   
    12     6     7 ar  
    13     6    12 ar  
    14     6    42 1   
    15     7    13 ar  
    16     7    43 1   
    17     8     9 1   
    18     8    15 2   
    19     8    44 1   
    20     9    28 2   
    21     9    45 1   
    22    10    12 ar  
    23    10    14 ar  
    24    10    24 1   
    25    11    30 1   
    26    12    32 1   
    27    13    14 ar  
    28    13    31 1   
    29    14    36 1   
    30    15    17 1   
    31    15    30 1   
    32    16    18 2   
    33    16    31 1   
    34    16    46 1   
    35    17    19 1   
    36    17    29 2   
    37    18    19 1   
    38    18    35 1   
    39    19    33 2   
    40    20    24 1   
    41    20    32 1   
    42    20    34 2   
    43    21    22 1   
    44    21    23 1   
    45    21    47 1   
    46    21    61 1   
    47    22    23 1   
    48    22    48 1   
    49    22    49 1   
    50    23    50 1   
    51    23    60 1   
    52    24    25 1   
    53    24    26 1   
    54    25    51 1   
    55    25    52 1   
    56    25    53 1   
    57    26    54 1   
    58    26    55 1   
    59    26    56 1   
    60    27    35 1   
    61    27    57 1   
    62    27    58 1   
    63    27    59 1   
    64    28    30 1   
    65    29    31 1   
    66    32    60 1   
    67    60    62 1   
    68    60    63 1   
@<TRIPOS>SUBSTRUCTURE
     1 4LP         1 TEMP              0 ****  ****    0 ROOT
