@<TRIPOS>MOLECULE
4LP
   63    68     1     0     0
SMALL
No Charge or Current Charge


@<TRIPOS>ATOM
      1 C33         -0.3270     3.1830     0.9740 ca         1 4LP      -0.109000
      2 C32         -1.0030     2.6470     2.0830 ca         1 4LP      -0.109000
      3 C34         -0.9460     3.1970    -0.2880 ca         1 4LP      -0.109000
      4 C31         -2.2980     2.1200     1.9300 ca         1 4LP      -0.090500
      5 C35         -2.2390     2.6660    -0.4430 ca         1 4LP      -0.090500
      6 C21          2.1390    -0.6300     1.6840 ca         1 4LP      -0.162000
      7 C22          0.8480    -1.1390     1.4400 ca         1 4LP      -0.050000
      8 C26         -5.7030     0.0580     0.0880 cc         1 4LP      -0.179000
      9 C27         -6.2590     1.3250     0.3480 cc         1 4LP       0.228900
     10 C9           2.1800     0.3010    -0.5630 ca         1 4LP      -0.188300
     11 C30         -2.9170     2.1150     0.6640 ca         1 4LP       0.033800
     12 C20          2.7940     0.0480     0.6470 ca         1 4LP       0.017000
     13 C6           0.2170    -0.9350     0.1900 ca         1 4LP       0.187000
     14 C7           0.8850    -0.1920    -0.8170 ca         1 4LP       0.262000
     15 C25         -4.3420     0.1900     0.1830 cd         1 4LP      -0.159900
     16 C4          -1.2340    -2.7910    -0.3160 cc         1 4LP      -0.107000
     17 C24         -3.3420    -0.8730    -0.0070 cd         1 4LP       0.323900
     18 C3          -2.5440    -3.1970    -0.4890 cd         1 4LP      -0.029100
     19 C36         -3.7000    -2.2870    -0.3540 c          1 4LP       0.479000
     20 C13          4.3420     1.3860    -0.5270 c          1 4LP       0.567000
     21 C17          6.9130    -0.9840     0.7550 cx         1 4LP      -0.121400
     22 C18          7.1470    -0.9300     2.2470 cx         1 4LP      -0.121400
     23 C16          5.7480    -0.7780     1.6960 cx         1 4LP      -0.161700
     24 C10          3.0870     1.1530    -1.4500 c5         1 4LP      -0.063700
     25 C11          2.4470     2.5130    -1.8240 c3         1 4LP      -0.075600
     26 C12          3.5090     0.4050    -2.7400 c3         1 4LP      -0.075600
     27 C1          -1.7590    -5.4950    -0.9560 c3         1 4LP       0.137900
     28 N28         -5.3750     2.2690     0.6030 nd         1 4LP      -0.504800
     29 N23         -2.0730    -0.4850     0.1560 nc         1 4LP      -0.366400
     30 N29         -4.1900     1.5610     0.5030 na         1 4LP       0.224000
     31 N5          -1.0770    -1.4300    -0.0110 na         1 4LP      -0.286300
     32 N14          4.0380     0.7140     0.6710 n          1 4LP      -0.211400
     33 O37         -4.8480    -2.6980    -0.5210 o          1 4LP      -0.510100
     34 O19          5.3760     1.9990    -0.7670 o          1 4LP      -0.512000
     35 O2          -2.8070    -4.5190    -0.8010 os         1 4LP      -0.293100
     36 F8           0.2920     0.0450    -2.0120 f          1 4LP      -0.147000
     37 H1           0.6750     3.5910     1.0940 ha         1 4LP       0.112000
     38 H2          -0.5250     2.6380     3.0600 ha         1 4LP       0.114000
     39 H3          -0.4260     3.6170    -1.1450 ha         1 4LP       0.114000
     40 H4          -2.8160     1.6990     2.7890 ha         1 4LP       0.128500
     41 H5          -2.7110     2.6690    -1.4220 ha         1 4LP       0.128500
     42 H6           2.6120    -0.7740     2.6530 ha         1 4LP       0.135000
     43 H7           0.3230    -1.6810     2.2230 ha         1 4LP       0.130000
     44 H8          -6.2970    -0.8190    -0.1390 ha         1 4LP       0.163000
     45 H9          -7.3090     1.5830     0.3560 h4         1 4LP       0.039100
     46 H10         -0.3410    -3.4020    -0.3980 h4         1 4LP       0.216000
     47 H12          7.0000    -1.9490     0.2610 hc         1 4LP       0.076950
     48 H13          7.3930    -1.8600     2.7550 hc         1 4LP       0.076950
     49 H14          7.6400    -0.0480     2.6500 hc         1 4LP       0.076950
     50 H15          5.0750    -1.6230     1.8290 hc         1 4LP       0.079700
     51 H16          2.1590     3.0720    -0.9260 hc         1 4LP       0.051200
     52 H17          3.1460     3.1400    -2.3910 hc         1 4LP       0.051200
     53 H18          1.5480     2.3820    -2.4380 hc         1 4LP       0.051200
     54 H19          2.6480     0.2040    -3.3890 hc         1 4LP       0.051200
     55 H20          4.2330     0.9890    -3.3210 hc         1 4LP       0.051200
     56 H21          3.9760    -0.5580    -2.5010 hc         1 4LP       0.051200
     57 H22         -2.1880    -6.4750    -1.2020 h1         1 4LP       0.042700
     58 H23         -1.0770    -5.2120    -1.7670 h1         1 4LP       0.042700
     59 H24         -1.1840    -5.6030    -0.0280 h1         1 4LP       0.042700
     60 C15          5.0190     0.5610     1.7590 c3         1 4LP       0.135000
     61 H11          7.2480    -0.1370     0.1600 hc         1 4LP       0.076950
     62 H25          4.4990     0.6480     2.7210 h1         1 4LP       0.065700
     63 H26          5.7460     1.3820     1.7100 h1         1 4LP       0.065700
@<TRIPOS>BOND
     1     1     2 ar  
     2     1     3 ar  
     3     1    37 1   
     4     2     4 ar  
     5     2    38 1   
     6     3     5 ar  
     7     3    39 1   
     8     4    11 ar  
     9     4    40 1   
    10     5    11 ar  
    11     5    41 1   
    12     6     7 ar  
    13     6    12 ar  
    14     6    42 1   
    15     7    13 ar  
    16     7    43 1   
    17     8     9 1   
    18     8    15 2   
    19     8    44 1   
    20     9    28 2   
    21     9    45 1   
    22    10    12 ar  
    23    10    14 ar  
    24    10    24 1   
    25    11    30 1   
    26    12    32 1   
    27    13    14 ar  
    28    13    31 1   
    29    14    36 1   
    30    15    17 1   
    31    15    30 1   
    32    16    18 2   
    33    16    31 1   
    34    16    46 1   
    35    17    19 1   
    36    17    29 2   
    37    18    19 1   
    38    18    35 1   
    39    19    33 2   
    40    20    24 1   
    41    20    32 1   
    42    20    34 2   
    43    21    22 1   
    44    21    23 1   
    45    21    47 1   
    46    21    61 1   
    47    22    23 1   
    48    22    48 1   
    49    22    49 1   
    50    23    50 1   
    51    23    60 1   
    52    24    25 1   
    53    24    26 1   
    54    25    51 1   
    55    25    52 1   
    56    25    53 1   
    57    26    54 1   
    58    26    55 1   
    59    26    56 1   
    60    27    35 1   
    61    27    57 1   
    62    27    58 1   
    63    27    59 1   
    64    28    30 1   
    65    29    31 1   
    66    32    60 1   
    67    60    62 1   
    68    60    63 1   
@<TRIPOS>SUBSTRUCTURE
     1 4LP         1 TEMP              0 ****  ****    0 ROOT
