@<TRIPOS>MOLECULE
4LQ
   62    65     1     0     0
SMALL
No Charge or Current Charge


@<TRIPOS>ATOM
      1 C3           3.2040     1.9910     0.1310 cc         1 4LQ       0.387800
      2 C4           1.1160     2.6160     0.3390 cc         1 4LQ       0.375800
      3 C6           4.4530     1.2470    -0.2640 c3         1 4LQ      -0.107700
      4 N1           1.8610     3.4370     1.0580 nd         1 4LQ      -0.357000
      5 N2           3.1700     3.0460     0.9270 nd         1 4LQ      -0.361000
      6 C7          -4.5660     0.4180     0.1610 ca         1 4LQ      -0.033000
      7 C9           4.7400     0.0250     0.6430 c3         1 4LQ      -0.072400
      8 C10         -2.6480     1.8700     1.0740 c          1 4LQ       0.604100
      9 C11         -4.9240    -0.9360    -0.0840 ca         1 4LQ      -0.047000
     10 C12         -0.3850     2.6930     0.2230 c3         1 4LQ      -0.091700
     11 C14         -6.2540    -1.2560    -0.4540 ca         1 4LQ      -0.027000
     12 C15         -1.1250     1.7870     1.2420 c3         1 4LQ      -0.163400
     13 O13         -3.2770     2.8530     1.4450 o          1 4LQ      -0.576100
     14 N8          -3.2230     0.7350     0.5180 ns         1 4LQ      -0.170000
     15 C19         -3.9810    -1.9860     0.0380 ca         1 4LQ      -0.103000
     16 C23         -4.3580    -3.3170    -0.2060 ca         1 4LQ      -0.105000
     17 C24         -5.6780    -3.6220    -0.5740 ca         1 4LQ      -0.107000
     18 C21         -6.6240    -2.5930    -0.6960 ca         1 4LQ      -0.095000
     19 C20         -7.2170    -0.2400    -0.5820 ca         1 4LQ      -0.106000
     20 C18         -6.8630     1.0950    -0.3510 ca         1 4LQ      -0.093000
     21 C17         -5.5490     1.4240     0.0150 ca         1 4LQ      -0.099000
     22 N5           1.9230     1.6790    -0.2690 na         1 4LQ      -0.369000
     23 C16          1.5070     0.5810    -1.1630 c3         1 4LQ       0.072600
     24 C22          1.4840     1.0010    -2.6430 c3         1 4LQ      -0.115100
     25 C25          6.0600    -0.7470     0.3350 c6         1 4LQ      -0.061700
     26 C30          6.3220    -1.8330     1.4170 c6         1 4LQ      -0.070900
     27 C29          7.6330    -2.6110     1.1450 c6         1 4LQ      -0.073400
     28 C28          7.6220    -3.2460    -0.2660 c6         1 4LQ      -0.074400
     29 C27          7.3710    -2.1750    -1.3530 c6         1 4LQ      -0.073400
     30 C26          6.0630    -1.3910    -1.0830 c6         1 4LQ      -0.070900
     31 H1           4.3650     0.9280    -1.3080 hc         1 4LQ       0.064200
     32 H2           5.3090     1.9310    -0.2240 hc         1 4LQ       0.064200
     33 H3           4.7680     0.3820     1.6810 hc         1 4LQ       0.045700
     34 H4           3.8890    -0.6640     0.5870 hc         1 4LQ       0.045700
     35 H5          -0.7020     3.7330     0.3690 hc         1 4LQ       0.080700
     36 H6          -0.6890     2.4250    -0.7960 hc         1 4LQ       0.080700
     37 H7          -0.8650     2.1210     2.2530 hc         1 4LQ       0.064700
     38 H8          -0.7880     0.7520     1.1000 hc         1 4LQ       0.064700
     39 H9          -2.5620    -0.0020     0.3120 hn         1 4LQ       0.154000
     40 H10         -2.9520    -1.7910     0.3240 ha         1 4LQ       0.105000
     41 H11         -3.6250    -4.1150    -0.1090 ha         1 4LQ       0.112000
     42 H12         -5.9670    -4.6530    -0.7620 ha         1 4LQ       0.115000
     43 H13         -7.6450    -2.8360    -0.9810 ha         1 4LQ       0.115000
     44 H14         -8.2380    -0.4840    -0.8670 ha         1 4LQ       0.116000
     45 H15         -7.6080     1.8810    -0.4600 ha         1 4LQ       0.118000
     46 H16         -5.3090     2.4710     0.1650 ha         1 4LQ       0.130000
     47 H17          2.1930    -0.2660    -1.0400 h1         1 4LQ       0.060200
     48 H18          0.5080     0.2340    -0.8710 h1         1 4LQ       0.060200
     49 H19          2.4790     1.3230    -2.9710 hc         1 4LQ       0.050700
     50 H20          1.1710     0.1590    -3.2720 hc         1 4LQ       0.050700
     51 H21          0.7820     1.8290    -2.8020 hc         1 4LQ       0.050700
     52 H22          6.8730    -0.0080     0.3860 hc         1 4LQ       0.050700
     53 H23          6.3760    -1.3680     2.4110 hc         1 4LQ       0.036950
     54 H24          5.4790    -2.5380     1.4510 hc         1 4LQ       0.036950
     55 H25          8.4930    -1.9330     1.2390 hc         1 4LQ       0.039700
     56 H26          7.7670    -3.3930     1.9050 hc         1 4LQ       0.039700
     57 H27          8.5780    -3.7540    -0.4540 hc         1 4LQ       0.038700
     58 H28          6.8410    -4.0180    -0.3180 hc         1 4LQ       0.038700
     59 H29          8.2190    -1.4770    -1.3870 hc         1 4LQ       0.039700
     60 H30          7.3210    -2.6530    -2.3410 hc         1 4LQ       0.039700
     61 H31          5.2010    -2.0650    -1.1890 hc         1 4LQ       0.036950
     62 H32          5.9510    -0.6200    -1.8560 hc         1 4LQ       0.036950
@<TRIPOS>BOND
     1     1     3 1   
     2     1     5 2   
     3     1    22 1   
     4     2     4 2   
     5     2    10 1   
     6     2    22 1   
     7     3     7 1   
     8     3    31 1   
     9     3    32 1   
    10     4     5 1   
    11     6     9 ar  
    12     6    14 1   
    13     6    21 ar  
    14     7    25 1   
    15     7    33 1   
    16     7    34 1   
    17     8    12 1   
    18     8    13 2   
    19     8    14 1   
    20     9    11 ar  
    21     9    15 ar  
    22    10    12 1   
    23    10    35 1   
    24    10    36 1   
    25    11    18 ar  
    26    11    19 ar  
    27    12    37 1   
    28    12    38 1   
    29    14    39 1   
    30    15    16 ar  
    31    15    40 1   
    32    16    17 ar  
    33    16    41 1   
    34    17    18 ar  
    35    17    42 1   
    36    18    43 1   
    37    19    20 ar  
    38    19    44 1   
    39    20    21 ar  
    40    20    45 1   
    41    21    46 1   
    42    22    23 1   
    43    23    24 1   
    44    23    47 1   
    45    23    48 1   
    46    24    49 1   
    47    24    50 1   
    48    24    51 1   
    49    25    26 1   
    50    25    30 1   
    51    25    52 1   
    52    26    27 1   
    53    26    53 1   
    54    26    54 1   
    55    27    28 1   
    56    27    55 1   
    57    27    56 1   
    58    28    29 1   
    59    28    57 1   
    60    28    58 1   
    61    29    30 1   
    62    29    59 1   
    63    29    60 1   
    64    30    61 1   
    65    30    62 1   
@<TRIPOS>SUBSTRUCTURE
     1 4LQ         1 TEMP              0 ****  ****    0 ROOT
