@<TRIPOS>MOLECULE
4LQ
   62    65     1     0     0
SMALL
abcg2


@<TRIPOS>ATOM
      1 C3           3.2520     2.0160     0.2480 cc         1 4LQ       0.387800
      2 C4           1.1600     2.5400     0.1300 cc         1 4LQ       0.375800
      3 C6           4.5510     1.3320     0.0210 c3         1 4LQ      -0.107700
      4 N1           1.7030     3.2670     1.0650 nd         1 4LQ      -0.357000
      5 N2           3.0180     2.9380     1.1390 nd         1 4LQ      -0.361000
      6 C7          -4.6220     0.2440     0.4870 ca         1 4LQ      -0.033000
      7 C9           4.6330    -0.0200     0.7390 c3         1 4LQ      -0.072400
      8 C10         -2.5280     1.4500     0.0570 c          1 4LQ       0.604100
      9 C11         -5.0770    -1.0460     0.0930 ca         1 4LQ      -0.047000
     10 C12         -0.2760     2.5600    -0.2580 c3         1 4LQ      -0.091700
     11 C14         -6.4760    -1.2700    -0.0140 ca         1 4LQ      -0.027000
     12 C15         -1.0530     1.4230     0.3990 c3         1 4LQ      -0.163400
     13 O13         -3.0250     2.2820    -0.6780 o          1 4LQ      -0.576100
     14 N8          -3.2400     0.4560     0.6480 ns         1 4LQ      -0.170000
     15 C19         -4.1940    -2.1120    -0.2010 ca         1 4LQ      -0.103000
     16 C23         -4.6750    -3.3420    -0.5590 ca         1 4LQ      -0.105000
     17 C24         -6.0630    -3.5700    -0.6450 ca         1 4LQ      -0.107000
     18 C21         -6.9410    -2.5540    -0.3820 ca         1 4LQ      -0.095000
     19 C20         -7.3740    -0.2060     0.2320 ca         1 4LQ      -0.106000
     20 C18         -6.9020     1.0280     0.5820 ca         1 4LQ      -0.093000
     21 C17         -5.5200     1.2530     0.7230 ca         1 4LQ      -0.099000
     22 N5           2.1010     1.7220    -0.4120 na         1 4LQ      -0.369000
     23 C16          1.9500     0.8480    -1.5630 c3         1 4LQ       0.072600
     24 C22          2.1690     1.5830    -2.8740 c3         1 4LQ      -0.115100
     25 C25          5.9440    -0.7600     0.4850 c6         1 4LQ      -0.061700
     26 C30          6.1060    -1.9300     1.4560 c6         1 4LQ      -0.070900
     27 C29          7.4130    -2.6840     1.2320 c6         1 4LQ      -0.073400
     28 C28          7.5390    -3.1640    -0.2100 c6         1 4LQ      -0.074400
     29 C27          7.3750    -2.0070    -1.1900 c6         1 4LQ      -0.073400
     30 C26          6.0650    -1.2610    -0.9550 c6         1 4LQ      -0.070900
     31 H1           4.7350     1.2150    -1.0490 hc         1 4LQ       0.064200
     32 H2           5.3420     1.9840     0.3970 hc         1 4LQ       0.064200
     33 H3           4.5160     0.1580     1.8120 hc         1 4LQ       0.045700
     34 H4           3.7930    -0.6590     0.4460 hc         1 4LQ       0.045700
     35 H5          -0.6860     3.5190     0.0580 hc         1 4LQ       0.080700
     36 H6          -0.3800     2.5170    -1.3440 hc         1 4LQ       0.080700
     37 H7          -0.9440     1.4770     1.4860 hc         1 4LQ       0.064700
     38 H8          -0.6480     0.4490     0.1080 hc         1 4LQ       0.064700
     39 H9          -2.7300    -0.2150     1.2040 hn         1 4LQ       0.154000
     40 H10         -3.1240    -1.9550    -0.1550 ha         1 4LQ       0.105000
     41 H11         -3.9860    -4.1450    -0.7850 ha         1 4LQ       0.112000
     42 H12         -6.4300    -4.5480    -0.9280 ha         1 4LQ       0.115000
     43 H13         -8.0090    -2.7200    -0.4570 ha         1 4LQ       0.115000
     44 H14         -8.4380    -0.3830     0.1400 ha         1 4LQ       0.116000
     45 H15         -7.5900     1.8410     0.7710 ha         1 4LQ       0.118000
     46 H16         -5.1710     2.2250     1.0420 ha         1 4LQ       0.130000
     47 H17          2.6530     0.0230    -1.4590 h1         1 4LQ       0.060200
     48 H18          0.9550     0.4060    -1.5330 h1         1 4LQ       0.060200
     49 H19          3.1630     2.0260    -2.9190 hc         1 4LQ       0.050700
     50 H20          2.0710     0.8870    -3.7070 hc         1 4LQ       0.050700
     51 H21          1.4350     2.3770    -3.0110 hc         1 4LQ       0.050700
     52 H22          6.7690    -0.0570     0.6680 hc         1 4LQ       0.050700
     53 H23          6.0540    -1.5660     2.4870 hc         1 4LQ       0.036950
     54 H24          5.2620    -2.6180     1.3270 hc         1 4LQ       0.036950
     55 H25          8.2540    -2.0230     1.4690 hc         1 4LQ       0.039700
     56 H26          7.4810    -3.5300     1.9210 hc         1 4LQ       0.039700
     57 H27          8.5020    -3.6580    -0.3630 hc         1 4LQ       0.038700
     58 H28          6.7670    -3.9160    -0.4080 hc         1 4LQ       0.038700
     59 H29          8.2130    -1.3110    -1.0720 hc         1 4LQ       0.039700
     60 H30          7.4190    -2.3720    -2.2190 hc         1 4LQ       0.039700
     61 H31          5.2250    -1.9350    -1.1670 hc         1 4LQ       0.036950
     62 H32          5.9830    -0.4320    -1.6640 hc         1 4LQ       0.036950
@<TRIPOS>BOND
     1     1     3 1   
     2     1     5 2   
     3     1    22 1   
     4     2     4 2   
     5     2    10 1   
     6     2    22 1   
     7     3     7 1   
     8     3    31 1   
     9     3    32 1   
    10     4     5 1   
    11     6     9 ar  
    12     6    14 1   
    13     6    21 ar  
    14     7    25 1   
    15     7    33 1   
    16     7    34 1   
    17     8    12 1   
    18     8    13 2   
    19     8    14 1   
    20     9    11 ar  
    21     9    15 ar  
    22    10    12 1   
    23    10    35 1   
    24    10    36 1   
    25    11    18 ar  
    26    11    19 ar  
    27    12    37 1   
    28    12    38 1   
    29    14    39 1   
    30    15    16 ar  
    31    15    40 1   
    32    16    17 ar  
    33    16    41 1   
    34    17    18 ar  
    35    17    42 1   
    36    18    43 1   
    37    19    20 ar  
    38    19    44 1   
    39    20    21 ar  
    40    20    45 1   
    41    21    46 1   
    42    22    23 1   
    43    23    24 1   
    44    23    47 1   
    45    23    48 1   
    46    24    49 1   
    47    24    50 1   
    48    24    51 1   
    49    25    26 1   
    50    25    30 1   
    51    25    52 1   
    52    26    27 1   
    53    26    53 1   
    54    26    54 1   
    55    27    28 1   
    56    27    55 1   
    57    27    56 1   
    58    28    29 1   
    59    28    57 1   
    60    28    58 1   
    61    29    30 1   
    62    29    59 1   
    63    29    60 1   
    64    30    61 1   
    65    30    62 1   
@<TRIPOS>SUBSTRUCTURE
     1 4LQ         1 TEMP              0 ****  ****    0 ROOT
