@<TRIPOS>MOLECULE
4LT
   10     9     1     0     0
SMALL
No Charge or Current Charge


@<TRIPOS>ATOM
      1 C            0.8710     0.0470    -0.0240 c          1 4LT       0.707000
      2 O            1.1160     0.8270    -0.9380 o          1 4LT      -0.722500
      3 CA          -0.6180    -0.2000     0.3910 c3         1 4LT       0.044300
      4 CB          -1.4450     1.1010     0.5130 c3         1 4LT      -0.098100
      5 F           -1.2570    -1.0500    -0.4630 f          1 4LT      -0.300000
      6 O1           1.7480    -0.5480     0.5910 o          1 4LT      -0.722500
      7 HA          -0.6060    -0.6810     1.3780 h1         1 4LT       0.024700
      8 HB3         -1.5310     1.6050    -0.4580 hc         1 4LT       0.022367
      9 HB2         -2.4560     0.8810     0.8760 hc         1 4LT       0.022367
     10 HB1         -0.9710     1.7910     1.2210 hc         1 4LT       0.022367
@<TRIPOS>BOND
     1     1     2 1   
     2     1     3 1   
     3     1     6 1   
     4     3     4 1   
     5     3     5 1   
     6     3     7 1   
     7     4     8 1   
     8     4     9 1   
     9     4    10 1   
@<TRIPOS>SUBSTRUCTURE
     1 4LT         1 TEMP              0 ****  ****    0 ROOT
