@<TRIPOS>MOLECULE
4LT
   10     9     1     0     0
SMALL
bcc


@<TRIPOS>ATOM
      1 C            0.8310     0.0650    -0.0440 c          1 4LT       0.917600
      2 O            1.0750     0.2590    -1.2470 o          1 4LT      -0.827800
      3 CA          -0.6340    -0.2120     0.3360 c3         1 4LT       0.025600
      4 CB          -1.3830     1.0760     0.6000 c3         1 4LT      -0.098100
      5 F           -1.2800    -0.8950    -0.7040 f          1 4LT      -0.281300
      6 O1           1.6240     0.1130     0.9160 o          1 4LT      -0.827800
      7 HA          -0.6800    -0.8600     1.2150 h1         1 4LT       0.024700
      8 HB3         -1.4220     1.6920    -0.3000 hc         1 4LT       0.022367
      9 HB2         -2.4030     0.8860     0.9390 hc         1 4LT       0.022367
     10 HB1         -0.8760     1.6500     1.3760 hc         1 4LT       0.022367
@<TRIPOS>BOND
     1     1     2 1   
     2     1     3 1   
     3     1     6 1   
     4     3     4 1   
     5     3     5 1   
     6     3     7 1   
     7     4     8 1   
     8     4     9 1   
     9     4    10 1   
@<TRIPOS>SUBSTRUCTURE
     1 4LT         1 TEMP              0 ****  ****    0 ROOT
