@<TRIPOS>MOLECULE
4LV
   21    21     1     0     0
SMALL
No Charge or Current Charge


@<TRIPOS>ATOM
      1 C1           1.2930     1.6380     0.6190 c3         1 4LV      -0.046900
      2 OXT          3.8110     0.4090     0.2630 o          1 4LV      -0.722000
      3 C            2.8720    -0.3450     0.0470 c          1 4LV       0.701200
      4 O            3.0400    -1.5150    -0.2690 o          1 4LV      -0.722000
      5 CA           1.4470     0.1900     0.1490 ce         1 4LV      -0.130400
      6 CB           0.3570    -0.6150    -0.0930 cf         1 4LV      -0.243200
      7 CG          -1.0940    -0.3310    -0.0820 ca         1 4LV       0.006200
      8 CD2         -1.6200     0.9090    -0.5030 ca         1 4LV      -0.121000
      9 CE2         -3.0080     1.1340    -0.4980 ca         1 4LV      -0.119000
     10 CZ          -3.8850     0.1190    -0.0840 ca         1 4LV      -0.147000
     11 CE1         -3.3720    -1.1260     0.3160 ca         1 4LV      -0.119000
     12 CD1         -1.9850    -1.3500     0.3100 ca         1 4LV      -0.121000
     13 H1           1.3190     2.3340    -0.2280 hc         1 4LV       0.027700
     14 H2           0.3510     1.7940     1.1570 hc         1 4LV       0.027700
     15 H3           2.0840     1.9370     1.3160 hc         1 4LV       0.027700
     16 H5           0.5660    -1.6540    -0.3560 ha         1 4LV       0.200000
     17 H6          -0.9620     1.6960    -0.8570 ha         1 4LV       0.113000
     18 H7          -3.4030     2.0940    -0.8230 ha         1 4LV       0.092000
     19 H8          -4.9580     0.2930    -0.0810 ha         1 4LV       0.090000
     20 H9          -4.0490    -1.9170     0.6300 ha         1 4LV       0.092000
     21 H10         -1.5990    -2.3180     0.6210 ha         1 4LV       0.113000
@<TRIPOS>BOND
     1     1     5 1   
     2     1    13 1   
     3     1    14 1   
     4     1    15 1   
     5     2     3 1   
     6     3     4 1   
     7     3     5 1   
     8     5     6 2   
     9     6     7 1   
    10     6    16 1   
    11     7     8 ar  
    12     7    12 ar  
    13     8     9 ar  
    14     8    17 1   
    15     9    10 ar  
    16     9    18 1   
    17    10    11 ar  
    18    10    19 1   
    19    11    12 ar  
    20    11    20 1   
    21    12    21 1   
@<TRIPOS>SUBSTRUCTURE
     1 4LV         1 TEMP              0 ****  ****    0 ROOT
