@<TRIPOS>MOLECULE
4LV
   21    21     1     0     0
SMALL
abcg2


@<TRIPOS>ATOM
      1 C1           1.2490     1.6070     0.6520 c3         1 4LV      -0.046900
      2 OXT          3.7330     0.4640     0.2700 o          1 4LV      -0.722000
      3 C            2.8160    -0.3430     0.0200 c          1 4LV       0.701200
      4 O            2.9560    -1.5280    -0.3440 o          1 4LV      -0.722000
      5 CA           1.3910     0.1970     0.1680 ce         1 4LV      -0.130400
      6 CB           0.3660    -0.6150    -0.1250 cf         1 4LV      -0.243200
      7 CG          -1.0710    -0.3210    -0.1050 ca         1 4LV       0.006200
      8 CD2         -1.6120     0.8930    -0.5400 ca         1 4LV      -0.121000
      9 CE2         -2.9830     1.1130    -0.5160 ca         1 4LV      -0.119000
     10 CZ          -3.8460     0.1240    -0.0610 ca         1 4LV      -0.147000
     11 CE1         -3.3260    -1.0950     0.3560 ca         1 4LV      -0.119000
     12 CD1         -1.9580    -1.3150     0.3240 ca         1 4LV      -0.121000
     13 H1           1.4600     2.3290    -0.1410 hc         1 4LV       0.027700
     14 H2           0.2500     1.8190     1.0280 hc         1 4LV       0.027700
     15 H3           1.9640     1.8100     1.4490 hc         1 4LV       0.027700
     16 H5           0.6190    -1.6370    -0.3900 ha         1 4LV       0.200000
     17 H6          -0.9620     1.6660    -0.9280 ha         1 4LV       0.113000
     18 H7          -3.3770     2.0580    -0.8650 ha         1 4LV       0.092000
     19 H8          -4.9140     0.2980    -0.0420 ha         1 4LV       0.090000
     20 H9          -3.9880    -1.8790     0.7010 ha         1 4LV       0.092000
     21 H10         -1.5640    -2.2720     0.6450 ha         1 4LV       0.113000
@<TRIPOS>BOND
     1     1     5 1   
     2     1    13 1   
     3     1    14 1   
     4     1    15 1   
     5     2     3 1   
     6     3     4 1   
     7     3     5 1   
     8     5     6 2   
     9     6     7 1   
    10     6    16 1   
    11     7     8 ar  
    12     7    12 ar  
    13     8     9 ar  
    14     8    17 1   
    15     9    10 ar  
    16     9    18 1   
    17    10    11 ar  
    18    10    19 1   
    19    11    12 ar  
    20    11    20 1   
    21    12    21 1   
@<TRIPOS>SUBSTRUCTURE
     1 4LV         1 TEMP              0 ****  ****    0 ROOT
