@<TRIPOS>MOLECULE
4LW
   18    18     1     0     0
SMALL
bcc


@<TRIPOS>ATOM
      1 F1          -1.3680     1.4790     0.0370 f          1 4LW      -0.195500
      2 CA          -1.4680     0.1370     0.0140 ce         1 4LW       0.095300
      3 C           -2.9010    -0.3730    -0.0070 c          1 4LW       0.913800
      4 O           -3.0340    -1.6090    -0.0190 o          1 4LW      -0.801300
      5 OXT         -3.7820     0.4990    -0.0090 o          1 4LW      -0.801300
      6 CB          -0.3760    -0.6260     0.0070 cf         1 4LW      -0.259200
      7 CG           1.0400    -0.2620     0.0220 ca         1 4LW       0.016200
      8 CD1          1.5340     1.0430     0.1490 ca         1 4LW      -0.141500
      9 CE1          2.8990     1.2850     0.1540 ca         1 4LW      -0.135000
     10 CZ           3.8070     0.2410     0.0320 ca         1 4LW      -0.167000
     11 CE2          3.3340    -1.0580    -0.0920 ca         1 4LW      -0.135000
     12 CD2          1.9700    -1.3030    -0.0940 ca         1 4LW      -0.141500
     13 H2          -0.5830    -1.6890    -0.0200 ha         1 4LW       0.153000
     14 H3           0.8620     1.8810     0.2510 ha         1 4LW       0.134500
     15 H4           3.2560     2.3030     0.2560 ha         1 4LW       0.110500
     16 H5           4.8710     0.4370     0.0360 ha         1 4LW       0.109000
     17 H6           4.0270    -1.8840    -0.1850 ha         1 4LW       0.110500
     18 H7           1.6130    -2.3210    -0.1910 ha         1 4LW       0.134500
@<TRIPOS>BOND
     1     1     2 1   
     2     2     3 1   
     3     2     6 2   
     4     3     4 1   
     5     3     5 1   
     6     6     7 1   
     7     6    13 1   
     8     7     8 ar  
     9     7    12 ar  
    10     8     9 ar  
    11     8    14 1   
    12     9    10 ar  
    13     9    15 1   
    14    10    11 ar  
    15    10    16 1   
    16    11    12 ar  
    17    11    17 1   
    18    12    18 1   
@<TRIPOS>SUBSTRUCTURE
     1 4LW         1 TEMP              0 ****  ****    0 ROOT
