@<TRIPOS>MOLECULE
4LW
   18    18     1     0     0
SMALL
No Charge or Current Charge


@<TRIPOS>ATOM
      1 F1          -1.3660     1.5010    -0.2910 f          1 4LW      -0.195500
      2 CA          -1.5150     0.1680    -0.0670 ce         1 4LW       0.095300
      3 C           -2.9450    -0.3700    -0.0080 c          1 4LW       0.703200
      4 O           -3.1210    -1.5690     0.1800 o          1 4LW      -0.696000
      5 OXT         -3.8780     0.4130    -0.1510 o          1 4LW      -0.696000
      6 CB          -0.3880    -0.6060     0.0650 cf         1 4LW      -0.309200
      7 CG           1.0550    -0.2750     0.0480 ca         1 4LW       0.016200
      8 CD1          1.5460     1.0360     0.2370 ca         1 4LW      -0.123500
      9 CE1          2.9280     1.2940     0.2180 ca         1 4LW      -0.117000
     10 CZ           3.8380     0.2450     0.0160 ca         1 4LW      -0.149000
     11 CE2          3.3650    -1.0640    -0.1620 ca         1 4LW      -0.117000
     12 CD2          1.9830    -1.3200    -0.1430 ca         1 4LW      -0.123500
     13 H2          -0.5720    -1.6720     0.2120 ha         1 4LW       0.203000
     14 H3           0.8710     1.8660     0.4180 ha         1 4LW       0.116500
     15 H4           3.2930     2.3080     0.3660 ha         1 4LW       0.092500
     16 H5           4.9070     0.4450     0.0020 ha         1 4LW       0.091000
     17 H6           4.0670    -1.8800    -0.3150 ha         1 4LW       0.092500
     18 H7           1.6320    -2.3400    -0.2840 ha         1 4LW       0.116500
@<TRIPOS>BOND
     1     1     2 1   
     2     2     3 1   
     3     2     6 2   
     4     3     4 1   
     5     3     5 1   
     6     6     7 1   
     7     6    13 1   
     8     7     8 ar  
     9     7    12 ar  
    10     8     9 ar  
    11     8    14 1   
    12     9    10 ar  
    13     9    15 1   
    14    10    11 ar  
    15    10    16 1   
    16    11    12 ar  
    17    11    17 1   
    18    12    18 1   
@<TRIPOS>SUBSTRUCTURE
     1 4LW         1 TEMP              0 ****  ****    0 ROOT
