@<TRIPOS>MOLECULE
4LX
  159   159     1     0     0
SMALL
bcc


@<TRIPOS>ATOM
      1 C1          -5.4910     4.7100     1.0890 c3         1 4LX       0.128400
      2 C2          -5.7900     3.2540     1.4180 c3         1 4LX       0.060700
      3 C3          -7.0980     2.7480     0.7710 c3         1 4LX       0.106100
      4 C4          -7.3950     1.2620     1.0670 c3         1 4LX       0.109100
      5 C5          -8.8270     0.8800     0.6920 c3         1 4LX      -0.104400
      6 C6          -9.1300    -0.5960     0.9230 c3         1 4LX      -0.074400
      7 O3          -8.1520     3.5930     1.1660 oh         1 4LX      -0.579800
      8 C18        -18.5640   -12.3560    -1.1300 c3         1 4LX      -0.088100
      9 C17        -18.4420   -10.8400    -1.1940 c3         1 4LX      -0.074400
     10 C16        -17.0820   -10.3360    -0.7250 c3         1 4LX      -0.075400
     11 C15        -16.9420    -8.8200    -0.7870 c3         1 4LX      -0.074400
     12 C14        -15.5790    -8.3270    -0.3170 c3         1 4LX      -0.074400
     13 C13        -15.4200    -6.8130    -0.3870 c3         1 4LX      -0.073400
     14 C12        -14.0470    -6.3380     0.0720 c3         1 4LX      -0.074400
     15 C11        -13.8590    -4.8290    -0.0160 c3         1 4LX      -0.073400
     16 C10        -12.4710    -4.3800     0.4250 c3         1 4LX      -0.075400
     17 C9         -12.2420    -2.8790     0.3050 c3         1 4LX      -0.073400
     18 C8         -10.8350    -2.4630     0.7170 c3         1 4LX      -0.075400
     19 C7         -10.5590    -0.9740     0.5500 c3         1 4LX      -0.074400
     20 O4          -6.4580     0.4310     0.4140 oh         1 4LX      -0.585800
     21 O1A         -5.3310     4.8320    -0.3110 os         1 4LX      -0.437600
     22 C1A         -4.5610     5.9120    -0.7310 c6         1 4LX       0.312900
     23 O6A         -3.1880     5.6490    -0.6310 os         1 4LX      -0.400600
     24 C5M         -2.7150     4.6070    -1.4680 c6         1 4LX       0.153100
     25 C6A         -1.2440     4.4020    -1.1800 c3         1 4LX       0.146400
     26 O5A         -1.1160     3.9150     0.1360 oh         1 4LX      -0.597800
     27 C4A         -2.9960     4.8900    -2.9360 c6         1 4LX       0.123100
     28 O4A         -2.2300     5.9970    -3.3430 oh         1 4LX      -0.591800
     29 C3A         -4.4920     5.1380    -3.1130 c6         1 4LX       0.117100
     30 O3A         -4.7160     5.4640    -4.4640 oh         1 4LX      -0.608800
     31 C2A         -4.9360     6.2530    -2.1770 c6         1 4LX       0.091100
     32 O2A         -6.3190     6.4420    -2.3380 oh         1 4LX      -0.586800
     33 N2          -4.6440     2.4650     1.0320 ns         1 4LX      -0.441900
     34 CAA         -3.9540     1.6210     1.7730 cs         1 4LX       0.489400
     35 CAB         -2.8280     0.9400     1.0410 c3         1 4LX      -0.122400
     36 CAC         -1.5240     0.8380     1.8230 c3         1 4LX      -0.065400
     37 CAD         -0.3760     0.3790     0.9320 c3         1 4LX      -0.075400
     38 CAE          0.9390     0.2260     1.6870 c3         1 4LX      -0.075400
     39 CAF          2.1230    -0.0660     0.7740 c3         1 4LX      -0.074400
     40 CAG          3.4390    -0.2290     1.5250 c3         1 4LX      -0.074400
     41 CAH          4.6400    -0.3780     0.6000 c3         1 4LX      -0.074400
     42 CAI          5.9620    -0.5450     1.3390 c3         1 4LX      -0.074400
     43 CAJ          7.1630    -0.6190     0.4050 c3         1 4LX      -0.074400
     44 CAK          8.4910    -0.7870     1.1320 c3         1 4LX      -0.074400
     45 CAL          9.6870    -0.8260     0.1890 c3         1 4LX      -0.074400
     46 CAM         11.0210    -0.9910     0.9060 c3         1 4LX      -0.074400
     47 CAN         12.2120    -1.0160    -0.0430 c3         1 4LX      -0.074400
     48 CAO         13.5500    -1.1780     0.6680 c3         1 4LX      -0.074400
     49 CAP         14.7380    -1.1960    -0.2850 c3         1 4LX      -0.074400
     50 CAQ         16.0780    -1.3530     0.4220 c3         1 4LX      -0.074400
     51 CAR         17.2640    -1.3680    -0.5340 c3         1 4LX      -0.074400
     52 CAS         18.6060    -1.5190     0.1720 c3         1 4LX      -0.074400
     53 CAT         19.7910    -1.5320    -0.7860 c3         1 4LX      -0.074400
     54 CAU         21.1340    -1.6760    -0.0820 c3         1 4LX      -0.074400
     55 CAV         22.3180    -1.6880    -1.0410 c3         1 4LX      -0.074400
     56 CAW         23.6630    -1.8240    -0.3370 c3         1 4LX      -0.074400
     57 CAX         24.8450    -1.8360    -1.2970 c3         1 4LX      -0.075400
     58 CAY         26.1930    -1.9620    -0.5970 c3         1 4LX      -0.075400
     59 CAZ         27.3640    -1.9710    -1.5690 c3         1 4LX      -0.088100
     60 SAA         -4.2840     1.2910     3.3750 s          1 4LX      -0.624400
     61 H1          -6.3000     5.3560     1.4410 h1         1 4LX       0.055700
     62 H2          -4.5790     5.0000     1.6210 h1         1 4LX       0.055700
     63 H3          -5.8850     3.1690     2.5050 h1         1 4LX       0.107700
     64 H4          -7.0270     2.8590    -0.3180 h1         1 4LX       0.081700
     65 H5          -7.2480     1.0790     2.1390 h1         1 4LX       0.092700
     66 H6          -9.5310     1.4820     1.2690 hc         1 4LX       0.048200
     67 H7          -9.0030     1.1320    -0.3620 hc         1 4LX       0.048200
     68 H8          -8.4390    -1.2130     0.3440 hc         1 4LX       0.046700
     69 H9          -8.9510    -0.8430     1.9760 hc         1 4LX       0.046700
     70 H10         -8.2860     3.5010     2.1160 ho         1 4LX       0.404000
     71 H11        -17.8170   -12.8370    -1.7640 hc         1 4LX       0.031367
     72 H12        -18.4140   -12.7220    -0.1120 hc         1 4LX       0.031367
     73 H13        -19.5460   -12.6950    -1.4610 hc         1 4LX       0.031367
     74 H14        -18.6190   -10.5020    -2.2200 hc         1 4LX       0.036200
     75 H15        -19.2270   -10.3810    -0.5860 hc         1 4LX       0.036200
     76 H16        -16.9070   -10.6750     0.3020 hc         1 4LX       0.036700
     77 H17        -16.2960   -10.7970    -1.3330 hc         1 4LX       0.036700
     78 H18        -17.1160    -8.4810    -1.8140 hc         1 4LX       0.036700
     79 H19        -17.7270    -8.3570    -0.1790 hc         1 4LX       0.036700
     80 H20        -15.4080    -8.6610     0.7130 hc         1 4LX       0.036700
     81 H21        -14.7960    -8.7990    -0.9200 hc         1 4LX       0.036700
     82 H22        -15.5950    -6.4780    -1.4160 hc         1 4LX       0.037200
     83 H23        -16.1960    -6.3370     0.2220 hc         1 4LX       0.037200
     84 H24        -13.8780    -6.6650     1.1050 hc         1 4LX       0.037200
     85 H25        -13.2760    -6.8310    -0.5300 hc         1 4LX       0.037200
     86 H26        -14.0360    -4.5000    -1.0460 hc         1 4LX       0.037200
     87 H27        -14.6180    -4.3290     0.5960 hc         1 4LX       0.037200
     88 H28        -12.3010    -4.6920     1.4610 hc         1 4LX       0.037700
     89 H29        -11.7190    -4.9050    -0.1740 hc         1 4LX       0.037700
     90 H30        -12.4220    -2.5650    -0.7300 hc         1 4LX       0.036700
     91 H31        -12.9770    -2.3450     0.9160 hc         1 4LX       0.036700
     92 H32        -10.6620    -2.7510     1.7600 hc         1 4LX       0.038700
     93 H33        -10.1070    -3.0280     0.1240 hc         1 4LX       0.038700
     94 H34        -11.2650    -0.3990     1.1580 hc         1 4LX       0.036700
     95 H35        -10.7480    -0.6850    -0.4900 hc         1 4LX       0.036700
     96 H36         -6.6120     0.4930    -0.5350 ho         1 4LX       0.395000
     97 H37         -4.7320     6.7840    -0.0870 h2         1 4LX       0.072700
     98 H38         -3.2250     3.6630    -1.2340 h1         1 4LX       0.041700
     99 H39         -0.8540     3.6870    -1.9150 h1         1 4LX       0.039200
    100 H40         -0.6960     5.3410    -1.3190 h1         1 4LX       0.039200
    101 H41         -0.1830     3.7750     0.3150 ho         1 4LX       0.410000
    102 H42         -2.7220     3.9890    -3.5040 h1         1 4LX       0.050700
    103 H43         -2.5020     6.2350    -4.2360 ho         1 4LX       0.424000
    104 H44         -5.0220     4.2130    -2.8430 h1         1 4LX       0.061700
    105 H45         -5.6180     5.7930    -4.5510 ho         1 4LX       0.431000
    106 H46         -4.3840     7.1640    -2.4430 h1         1 4LX       0.066700
    107 H47         -6.5470     7.3310    -2.0490 ho         1 4LX       0.414000
    108 H48         -4.3670     2.5530     0.0650 hn         1 4LX       0.314500
    109 H49         -3.1800    -0.0600     0.7670 hc         1 4LX       0.058200
    110 H50         -2.6300     1.4680     0.1030 hc         1 4LX       0.058200
    111 H51         -1.2780     1.8150     2.2470 hc         1 4LX       0.062700
    112 H52         -1.6490     0.1550     2.6660 hc         1 4LX       0.062700
    113 H53         -0.6350    -0.5690     0.4500 hc         1 4LX       0.032700
    114 H54         -0.2470     1.1080     0.1250 hc         1 4LX       0.032700
    115 H55          1.1410     1.1450     2.2480 hc         1 4LX       0.041700
    116 H56          0.8410    -0.5690     2.4350 hc         1 4LX       0.041700
    117 H57          1.9240    -0.9720     0.1900 hc         1 4LX       0.034700
    118 H58          2.2210     0.7470     0.0460 hc         1 4LX       0.034700
    119 H59          3.5930     0.6390     2.1760 hc         1 4LX       0.039200
    120 H60          3.3760    -1.0970     2.1900 hc         1 4LX       0.039200
    121 H61          4.4870    -1.2340    -0.0660 hc         1 4LX       0.035700
    122 H62          4.7010     0.5020    -0.0520 hc         1 4LX       0.035700
    123 H63          6.0970     0.2900     2.0350 hc         1 4LX       0.038200
    124 H64          5.9230    -1.4500     1.9570 hc         1 4LX       0.038200
    125 H65          7.0260    -1.4490    -0.2970 hc         1 4LX       0.036200
    126 H66          7.1970     0.2900    -0.2070 hc         1 4LX       0.036200
    127 H67          8.6200     0.0340     1.8460 hc         1 4LX       0.037700
    128 H68          8.4670    -1.7060     1.7290 hc         1 4LX       0.037700
    129 H69          9.5570    -1.6450    -0.5270 hc         1 4LX       0.036700
    130 H70          9.7070     0.0940    -0.4060 hc         1 4LX       0.036700
    131 H71         11.1490    -0.1760     1.6270 hc         1 4LX       0.037700
    132 H72         11.0060    -1.9150     1.4950 hc         1 4LX       0.037700
    133 H73         12.0840    -1.8320    -0.7630 hc         1 4LX       0.036700
    134 H74         12.2240    -0.0920    -0.6320 hc         1 4LX       0.036700
    135 H75         13.6770    -0.3640     1.3910 hc         1 4LX       0.037200
    136 H76         13.5410    -2.1030     1.2550 hc         1 4LX       0.037200
    137 H77         14.6110    -2.0110    -1.0060 hc         1 4LX       0.036700
    138 H78         14.7440    -0.2710    -0.8730 hc         1 4LX       0.036700
    139 H79         16.2050    -0.5370     1.1440 hc         1 4LX       0.037200
    140 H80         16.0740    -2.2780     1.0100 hc         1 4LX       0.037200
    141 H81         17.1390    -2.1840    -1.2540 hc         1 4LX       0.036700
    142 H82         17.2660    -0.4430    -1.1230 hc         1 4LX       0.036700
    143 H83         18.7310    -0.7020     0.8910 hc         1 4LX       0.037200
    144 H84         18.6050    -2.4430     0.7610 hc         1 4LX       0.037200
    145 H85         19.6680    -2.3500    -1.5040 hc         1 4LX       0.036700
    146 H86         19.7890    -0.6090    -1.3770 hc         1 4LX       0.036700
    147 H87         21.2580    -0.8570     0.6350 hc         1 4LX       0.036700
    148 H88         21.1370    -2.5990     0.5100 hc         1 4LX       0.036700
    149 H89         22.1970    -2.5100    -1.7550 hc         1 4LX       0.036700
    150 H90         22.3110    -0.7680    -1.6360 hc         1 4LX       0.036700
    151 H91         23.7840    -1.0010     0.3770 hc         1 4LX       0.036700
    152 H92         23.6700    -2.7440     0.2590 hc         1 4LX       0.036700
    153 H93         24.7280    -2.6620    -2.0080 hc         1 4LX       0.036700
    154 H94         24.8340    -0.9180    -1.8970 hc         1 4LX       0.036700
    155 H95         26.3100    -1.1360     0.1120 hc         1 4LX       0.036700
    156 H96         26.2050    -2.8780     0.0030 hc         1 4LX       0.036700
    157 H97         28.3200    -2.0540    -1.0500 hc         1 4LX       0.031367
    158 H98         27.2910    -2.8100    -2.2640 hc         1 4LX       0.031367
    159 H99         27.3890    -1.0540    -2.1620 hc         1 4LX       0.031367
@<TRIPOS>BOND
     1     1     2 1   
     2     1    21 1   
     3     1    61 1   
     4     1    62 1   
     5     2     3 1   
     6     2    33 1   
     7     2    63 1   
     8     3     4 1   
     9     3     7 1   
    10     3    64 1   
    11     4     5 1   
    12     4    20 1   
    13     4    65 1   
    14     5     6 1   
    15     5    66 1   
    16     5    67 1   
    17     6    19 1   
    18     6    68 1   
    19     6    69 1   
    20     7    70 1   
    21     8     9 1   
    22     8    71 1   
    23     8    72 1   
    24     8    73 1   
    25     9    10 1   
    26     9    74 1   
    27     9    75 1   
    28    10    11 1   
    29    10    76 1   
    30    10    77 1   
    31    11    12 1   
    32    11    78 1   
    33    11    79 1   
    34    12    13 1   
    35    12    80 1   
    36    12    81 1   
    37    13    14 1   
    38    13    82 1   
    39    13    83 1   
    40    14    15 1   
    41    14    84 1   
    42    14    85 1   
    43    15    16 1   
    44    15    86 1   
    45    15    87 1   
    46    16    17 1   
    47    16    88 1   
    48    16    89 1   
    49    17    18 1   
    50    17    90 1   
    51    17    91 1   
    52    18    19 1   
    53    18    92 1   
    54    18    93 1   
    55    19    94 1   
    56    19    95 1   
    57    20    96 1   
    58    21    22 1   
    59    22    23 1   
    60    22    31 1   
    61    22    97 1   
    62    23    24 1   
    63    24    25 1   
    64    24    27 1   
    65    24    98 1   
    66    25    26 1   
    67    25    99 1   
    68    25   100 1   
    69    26   101 1   
    70    27    28 1   
    71    27    29 1   
    72    27   102 1   
    73    28   103 1   
    74    29    30 1   
    75    29    31 1   
    76    29   104 1   
    77    30   105 1   
    78    31    32 1   
    79    31   106 1   
    80    32   107 1   
    81    33    34 1   
    82    33   108 1   
    83    34    35 1   
    84    34    60 2   
    85    35    36 1   
    86    35   109 1   
    87    35   110 1   
    88    36    37 1   
    89    36   111 1   
    90    36   112 1   
    91    37    38 1   
    92    37   113 1   
    93    37   114 1   
    94    38    39 1   
    95    38   115 1   
    96    38   116 1   
    97    39    40 1   
    98    39   117 1   
    99    39   118 1   
   100    40    41 1   
   101    40   119 1   
   102    40   120 1   
   103    41    42 1   
   104    41   121 1   
   105    41   122 1   
   106    42    43 1   
   107    42   123 1   
   108    42   124 1   
   109    43    44 1   
   110    43   125 1   
   111    43   126 1   
   112    44    45 1   
   113    44   127 1   
   114    44   128 1   
   115    45    46 1   
   116    45   129 1   
   117    45   130 1   
   118    46    47 1   
   119    46   131 1   
   120    46   132 1   
   121    47    48 1   
   122    47   133 1   
   123    47   134 1   
   124    48    49 1   
   125    48   135 1   
   126    48   136 1   
   127    49    50 1   
   128    49   137 1   
   129    49   138 1   
   130    50    51 1   
   131    50   139 1   
   132    50   140 1   
   133    51    52 1   
   134    51   141 1   
   135    51   142 1   
   136    52    53 1   
   137    52   143 1   
   138    52   144 1   
   139    53    54 1   
   140    53   145 1   
   141    53   146 1   
   142    54    55 1   
   143    54   147 1   
   144    54   148 1   
   145    55    56 1   
   146    55   149 1   
   147    55   150 1   
   148    56    57 1   
   149    56   151 1   
   150    56   152 1   
   151    57    58 1   
   152    57   153 1   
   153    57   154 1   
   154    58    59 1   
   155    58   155 1   
   156    58   156 1   
   157    59   157 1   
   158    59   158 1   
   159    59   159 1   
@<TRIPOS>SUBSTRUCTURE
     1 4LX         1 TEMP              0 ****  ****    0 ROOT
