@<TRIPOS>MOLECULE
4LX
  159   159     1     0     0
SMALL
No Charge or Current Charge


@<TRIPOS>ATOM
      1 C1          -5.6010     4.3010     1.2720 c3         1 4LX       0.151600
      2 C2          -6.0140     2.8680     1.7070 c3         1 4LX       0.060700
      3 C3          -7.2310     2.3210     0.8820 c3         1 4LX       0.129300
      4 C4          -7.5930     0.8090     1.1340 c3         1 4LX       0.132300
      5 C5          -8.9000     0.3550     0.4210 c3         1 4LX      -0.104400
      6 C6          -9.3300    -1.1020     0.7300 c3         1 4LX      -0.074400
      7 O3          -8.3720     3.1620     1.1580 oh         1 4LX      -0.642000
      8 C18        -19.9650   -12.1080    -1.4450 c3         1 4LX      -0.088100
      9 C17        -19.5370   -10.6570    -1.7420 c3         1 4LX      -0.074400
     10 C16        -18.2090   -10.2660    -1.0570 c3         1 4LX      -0.075400
     11 C15        -17.7810    -8.8110    -1.3530 c3         1 4LX      -0.074400
     12 C14        -16.4500    -8.4220    -0.6730 c3         1 4LX      -0.074400
     13 C13        -16.0190    -6.9700    -0.9750 c3         1 4LX      -0.073400
     14 C12        -14.6810    -6.5850    -0.3060 c3         1 4LX      -0.074400
     15 C11        -14.2460    -5.1350    -0.6140 c3         1 4LX      -0.073400
     16 C10        -12.9020    -4.7550     0.0450 c3         1 4LX      -0.075400
     17 C9         -12.4650    -3.3060    -0.2620 c3         1 4LX      -0.073400
     18 C8         -11.1160    -2.9290     0.3890 c3         1 4LX      -0.075400
     19 C7         -10.6800    -1.4800     0.0800 c3         1 4LX      -0.074400
     20 O4          -6.5260    -0.0390     0.6730 oh         1 4LX      -0.648000
     21 O1A         -5.1090     4.2390    -0.0820 os         1 4LX      -0.484000
     22 C1A         -4.6440     5.4770    -0.6580 c6         1 4LX       0.359300
     23 O6A         -3.4910     5.9630     0.0650 os         1 4LX      -0.447000
     24 C5M         -2.3270     5.0930     0.0030 c6         1 4LX       0.176300
     25 C6A         -1.2010     5.6810     0.9170 c3         1 4LX       0.169600
     26 O5A         -1.6040     5.8510     2.2920 oh         1 4LX      -0.720000
     27 C4A         -1.8490     4.9010    -1.4740 c6         1 4LX       0.146300
     28 O4A         -1.3670     6.1230    -2.0720 oh         1 4LX      -0.714000
     29 C3A         -3.0380     4.3580    -2.3180 c6         1 4LX       0.140300
     30 O3A         -2.6650     4.2600    -3.7060 oh         1 4LX      -0.671000
     31 C2A         -4.3010     5.2660    -2.1710 c6         1 4LX       0.114300
     32 O2A         -5.4100     4.6790    -2.8940 oh         1 4LX      -0.709000
     33 N2          -4.8480     1.9730     1.6800 ns         1 4LX      -0.374900
     34 CAA         -3.8440     1.9000     2.6080 cs         1 4LX       0.422400
     35 CAB         -2.7700     0.8730     2.2790 c3         1 4LX      -0.122400
     36 CAC         -1.4040     1.5260     1.9660 c3         1 4LX      -0.065400
     37 CAD         -0.2840     0.5000     1.6890 c3         1 4LX      -0.075400
     38 CAE          1.0830     1.1690     1.4230 c3         1 4LX      -0.075400
     39 CAF          2.2200     0.1520     1.1810 c3         1 4LX      -0.074400
     40 CAG          3.5950     0.8270     0.9760 c3         1 4LX      -0.074400
     41 CAH          4.7450    -0.1830     0.7720 c3         1 4LX      -0.074400
     42 CAI          6.1230     0.4990     0.6200 c3         1 4LX      -0.074400
     43 CAJ          7.2830    -0.5040     0.4410 c3         1 4LX      -0.074400
     44 CAK          8.6610     0.1840     0.3310 c3         1 4LX      -0.074400
     45 CAL          9.8290    -0.8130     0.1640 c3         1 4LX      -0.074400
     46 CAM         11.2070    -0.1180     0.0890 c3         1 4LX      -0.074400
     47 CAN         12.3810    -1.1080    -0.0740 c3         1 4LX      -0.074400
     48 CAO         13.7560    -0.4070    -0.1270 c3         1 4LX      -0.074400
     49 CAP         14.9350    -1.3900    -0.2920 c3         1 4LX      -0.074400
     50 CAQ         16.3070    -0.6810    -0.3290 c3         1 4LX      -0.074400
     51 CAR         17.4910    -1.6580    -0.4980 c3         1 4LX      -0.074400
     52 CAS         18.8610    -0.9450    -0.5190 c3         1 4LX      -0.074400
     53 CAT         20.0470    -1.9180    -0.6960 c3         1 4LX      -0.074400
     54 CAU         21.4160    -1.2040    -0.7130 c3         1 4LX      -0.074400
     55 CAV         22.6040    -2.1740    -0.8960 c3         1 4LX      -0.074400
     56 CAW         23.9700    -1.4550    -0.9160 c3         1 4LX      -0.074400
     57 CAX         25.1600    -2.4220    -1.1040 c3         1 4LX      -0.075400
     58 CAY         26.5260    -1.7010    -1.1230 c3         1 4LX      -0.075400
     59 CAZ         27.7130    -2.6630    -1.3170 c3         1 4LX      -0.088100
     60 SAA         -3.8320     2.7800     4.0370 s          1 4LX      -0.624400
     61 H1          -6.4610     4.9790     1.3460 h1         1 4LX       0.055700
     62 H2          -4.8220     4.6730     1.9500 h1         1 4LX       0.055700
     63 H3          -6.3430     2.9310     2.7530 h1         1 4LX       0.107700
     64 H4          -6.9720     2.4070    -0.1830 h1         1 4LX       0.081700
     65 H5          -7.7330     0.6760     2.2170 h1         1 4LX       0.092700
     66 H6          -9.7240     1.0150     0.7190 hc         1 4LX       0.048200
     67 H7          -8.7810     0.4760    -0.6630 hc         1 4LX       0.048200
     68 H8          -8.5620    -1.8010     0.3750 hc         1 4LX       0.046700
     69 H9          -9.4070    -1.2330     1.8170 hc         1 4LX       0.046700
     70 H10         -8.7130     2.9300     2.0490 ho         1 4LX       0.443000
     71 H11        -19.2050   -12.8160    -1.7960 hc         1 4LX       0.031367
     72 H12        -20.1070   -12.2570    -0.3680 hc         1 4LX       0.031367
     73 H13        -20.9090   -12.3390    -1.9520 hc         1 4LX       0.031367
     74 H14        -19.4370   -10.5310    -2.8270 hc         1 4LX       0.036200
     75 H15        -20.3310    -9.9770    -1.4110 hc         1 4LX       0.036200
     76 H16        -18.3100   -10.3980     0.0270 hc         1 4LX       0.036700
     77 H17        -17.4170   -10.9490    -1.3910 hc         1 4LX       0.036700
     78 H18        -17.6830    -8.6790    -2.4380 hc         1 4LX       0.036700
     79 H19        -18.5710    -8.1280    -1.0170 hc         1 4LX       0.036700
     80 H20        -16.5490    -8.5500     0.4120 hc         1 4LX       0.036700
     81 H21        -15.6620    -9.1080    -1.0060 hc         1 4LX       0.036700
     82 H22        -15.9280    -6.8400    -2.0610 hc         1 4LX       0.037200
     83 H23        -16.8030    -6.2820    -0.6350 hc         1 4LX       0.037200
     84 H24        -14.7720    -6.7110     0.7800 hc         1 4LX       0.037200
     85 H25        -13.8980    -7.2750    -0.6440 hc         1 4LX       0.037200
     86 H26        -14.1630    -5.0070    -1.7000 hc         1 4LX       0.037200
     87 H27        -15.0250    -4.4440    -0.2680 hc         1 4LX       0.037200
     88 H28        -12.9840    -4.8830     1.1320 hc         1 4LX       0.037700
     89 H29        -12.1230    -5.4470    -0.3010 hc         1 4LX       0.037700
     90 H30        -12.3890    -3.1760    -1.3490 hc         1 4LX       0.036700
     91 H31        -13.2410    -2.6140     0.0890 hc         1 4LX       0.036700
     92 H32        -11.1920    -3.0590     1.4760 hc         1 4LX       0.038700
     93 H33        -10.3410    -3.6220     0.0370 hc         1 4LX       0.038700
     94 H34        -11.4560    -0.7890     0.4320 hc         1 4LX       0.036700
     95 H35        -10.6040    -1.3500    -1.0070 hc         1 4LX       0.036700
     96 H36         -6.8170    -0.9670     0.8020 ho         1 4LX       0.434000
     97 H37         -5.4480     6.2250    -0.5890 h2         1 4LX       0.072700
     98 H38         -2.6040     4.1120     0.4130 h1         1 4LX       0.041700
     99 H39         -0.3350     5.0070     0.8610 h1         1 4LX       0.039200
    100 H40         -0.8880     6.6470     0.4990 h1         1 4LX       0.039200
    101 H41         -0.8640     6.3070     2.7550 ho         1 4LX       0.509000
    102 H42         -1.0500     4.1440    -1.4800 h1         1 4LX       0.050700
    103 H43         -1.4300     5.9560    -3.0440 ho         1 4LX       0.523000
    104 H44         -3.2910     3.3580    -1.9310 h1         1 4LX       0.061700
    105 H45         -3.5170     4.1630    -4.1940 ho         1 4LX       0.470000
    106 H46         -4.0680     6.2550    -2.5940 h1         1 4LX       0.066700
    107 H47         -5.8520     4.0680    -2.2550 ho         1 4LX       0.513000
    108 H48         -4.8100     1.3050     0.9160 hn         1 4LX       0.314500
    109 H49         -2.6580     0.1970     3.1350 hc         1 4LX       0.058200
    110 H50         -3.0760     0.2480     1.4300 hc         1 4LX       0.058200
    111 H51         -1.5100     2.1830     1.0950 hc         1 4LX       0.062700
    112 H52         -1.1060     2.1620     2.8100 hc         1 4LX       0.062700
    113 H53         -0.1920    -0.1740     2.5500 hc         1 4LX       0.032700
    114 H54         -0.5610    -0.1170     0.8250 hc         1 4LX       0.032700
    115 H55          0.9990     1.8310     0.5520 hc         1 4LX       0.041700
    116 H56          1.3450     1.8010     2.2800 hc         1 4LX       0.041700
    117 H57          2.2800    -0.5310     2.0370 hc         1 4LX       0.034700
    118 H58          1.9810    -0.4570     0.3000 hc         1 4LX       0.034700
    119 H59          3.5430     1.4970     0.1090 hc         1 4LX       0.039200
    120 H60          3.8190     1.4530     1.8500 hc         1 4LX       0.039200
    121 H61          4.7770    -0.8690     1.6270 hc         1 4LX       0.035700
    122 H62          4.5400    -0.7890    -0.1200 hc         1 4LX       0.035700
    123 H63          6.0960     1.1780    -0.2420 hc         1 4LX       0.038200
    124 H64          6.3160     1.1160     1.5070 hc         1 4LX       0.038200
    125 H65          7.2940    -1.1970     1.2920 hc         1 4LX       0.036200
    126 H66          7.1050    -1.1050    -0.4600 hc         1 4LX       0.036200
    127 H67          8.6530     0.8740    -0.5220 hc         1 4LX       0.037700
    128 H68          8.8320     0.7890     1.2300 hc         1 4LX       0.037700
    129 H69          9.8270    -1.5150     1.0070 hc         1 4LX       0.036700
    130 H70          9.6720    -1.4040    -0.7470 hc         1 4LX       0.036700
    131 H71         11.2100     0.5860    -0.7530 hc         1 4LX       0.037700
    132 H72         11.3600     0.4730     1.0010 hc         1 4LX       0.037700
    133 H73         12.3720    -1.8200     0.7610 hc         1 4LX       0.036700
    134 H74         12.2370    -1.6900    -0.9930 hc         1 4LX       0.036700
    135 H75         13.7640     0.3080    -0.9600 hc         1 4LX       0.037200
    136 H76         13.8980     0.1740     0.7940 hc         1 4LX       0.037200
    137 H77         14.9240    -2.1100     0.5360 hc         1 4LX       0.036700
    138 H78         14.8000    -1.9630    -1.2180 hc         1 4LX       0.036700
    139 H79         16.3170     0.0420    -1.1540 hc         1 4LX       0.037200
    140 H80         16.4420    -0.1110     0.5990 hc         1 4LX       0.037200
    141 H81         17.4780    -2.3870     0.3220 hc         1 4LX       0.036700
    142 H82         17.3630    -2.2210    -1.4310 hc         1 4LX       0.036700
    143 H83         18.8730    -0.2110    -1.3350 hc         1 4LX       0.037200
    144 H84         18.9910    -0.3860     0.4160 hc         1 4LX       0.037200
    145 H85         20.0350    -2.6530     0.1190 hc         1 4LX       0.036700
    146 H86         19.9200    -2.4750    -1.6330 hc         1 4LX       0.036700
    147 H87         21.4270    -0.4650    -1.5250 hc         1 4LX       0.036700
    148 H88         21.5450    -0.6500     0.2250 hc         1 4LX       0.036700
    149 H89         22.5960    -2.9110    -0.0830 hc         1 4LX       0.036700
    150 H90         22.4750    -2.7290    -1.8340 hc         1 4LX       0.036700
    151 H91         23.9760    -0.7160    -1.7260 hc         1 4LX       0.036700
    152 H92         24.1000    -0.9030     0.0230 hc         1 4LX       0.036700
    153 H93         25.1550    -3.1620    -0.2940 hc         1 4LX       0.036700
    154 H94         25.0310    -2.9730    -2.0430 hc         1 4LX       0.036700
    155 H95         26.5340    -0.9580    -1.9310 hc         1 4LX       0.036700
    156 H96         26.6610    -1.1520    -0.1830 hc         1 4LX       0.036700
    157 H97         28.6590    -2.1070    -1.3230 hc         1 4LX       0.031367
    158 H98         27.7530    -3.3990    -0.5050 hc         1 4LX       0.031367
    159 H99         27.6260    -3.2010    -2.2690 hc         1 4LX       0.031367
@<TRIPOS>BOND
     1     1     2 1   
     2     1    21 1   
     3     1    61 1   
     4     1    62 1   
     5     2     3 1   
     6     2    33 1   
     7     2    63 1   
     8     3     4 1   
     9     3     7 1   
    10     3    64 1   
    11     4     5 1   
    12     4    20 1   
    13     4    65 1   
    14     5     6 1   
    15     5    66 1   
    16     5    67 1   
    17     6    19 1   
    18     6    68 1   
    19     6    69 1   
    20     7    70 1   
    21     8     9 1   
    22     8    71 1   
    23     8    72 1   
    24     8    73 1   
    25     9    10 1   
    26     9    74 1   
    27     9    75 1   
    28    10    11 1   
    29    10    76 1   
    30    10    77 1   
    31    11    12 1   
    32    11    78 1   
    33    11    79 1   
    34    12    13 1   
    35    12    80 1   
    36    12    81 1   
    37    13    14 1   
    38    13    82 1   
    39    13    83 1   
    40    14    15 1   
    41    14    84 1   
    42    14    85 1   
    43    15    16 1   
    44    15    86 1   
    45    15    87 1   
    46    16    17 1   
    47    16    88 1   
    48    16    89 1   
    49    17    18 1   
    50    17    90 1   
    51    17    91 1   
    52    18    19 1   
    53    18    92 1   
    54    18    93 1   
    55    19    94 1   
    56    19    95 1   
    57    20    96 1   
    58    21    22 1   
    59    22    23 1   
    60    22    31 1   
    61    22    97 1   
    62    23    24 1   
    63    24    25 1   
    64    24    27 1   
    65    24    98 1   
    66    25    26 1   
    67    25    99 1   
    68    25   100 1   
    69    26   101 1   
    70    27    28 1   
    71    27    29 1   
    72    27   102 1   
    73    28   103 1   
    74    29    30 1   
    75    29    31 1   
    76    29   104 1   
    77    30   105 1   
    78    31    32 1   
    79    31   106 1   
    80    32   107 1   
    81    33    34 1   
    82    33   108 1   
    83    34    35 1   
    84    34    60 2   
    85    35    36 1   
    86    35   109 1   
    87    35   110 1   
    88    36    37 1   
    89    36   111 1   
    90    36   112 1   
    91    37    38 1   
    92    37   113 1   
    93    37   114 1   
    94    38    39 1   
    95    38   115 1   
    96    38   116 1   
    97    39    40 1   
    98    39   117 1   
    99    39   118 1   
   100    40    41 1   
   101    40   119 1   
   102    40   120 1   
   103    41    42 1   
   104    41   121 1   
   105    41   122 1   
   106    42    43 1   
   107    42   123 1   
   108    42   124 1   
   109    43    44 1   
   110    43   125 1   
   111    43   126 1   
   112    44    45 1   
   113    44   127 1   
   114    44   128 1   
   115    45    46 1   
   116    45   129 1   
   117    45   130 1   
   118    46    47 1   
   119    46   131 1   
   120    46   132 1   
   121    47    48 1   
   122    47   133 1   
   123    47   134 1   
   124    48    49 1   
   125    48   135 1   
   126    48   136 1   
   127    49    50 1   
   128    49   137 1   
   129    49   138 1   
   130    50    51 1   
   131    50   139 1   
   132    50   140 1   
   133    51    52 1   
   134    51   141 1   
   135    51   142 1   
   136    52    53 1   
   137    52   143 1   
   138    52   144 1   
   139    53    54 1   
   140    53   145 1   
   141    53   146 1   
   142    54    55 1   
   143    54   147 1   
   144    54   148 1   
   145    55    56 1   
   146    55   149 1   
   147    55   150 1   
   148    56    57 1   
   149    56   151 1   
   150    56   152 1   
   151    57    58 1   
   152    57   153 1   
   153    57   154 1   
   154    58    59 1   
   155    58   155 1   
   156    58   156 1   
   157    59   157 1   
   158    59   158 1   
   159    59   159 1   
@<TRIPOS>SUBSTRUCTURE
     1 4LX         1 TEMP              0 ****  ****    0 ROOT
