@<TRIPOS>MOLECULE
4LY
   71    76     1     0     0
SMALL
No Charge or Current Charge


@<TRIPOS>ATOM
      1 C10         11.8700   -16.1410     5.5420 cc         1 4LY      -0.105000
      2 C13         10.4390   -18.9240     6.0260 ca         1 4LY      -0.224800
      3 C17         11.8100   -19.3570     6.0740 cc         1 4LY      -0.198200
      4 C21          5.4730   -17.6380     6.0000 ca         1 4LY       0.382000
      5 C22          4.2460   -17.7780     6.6560 ca         1 4LY      -0.223500
      6 C26          2.4630   -14.5630     5.6600 ce         1 4LY      -0.044400
      7 C28          0.8600   -12.9070     6.7690 c6         1 4LY       0.167800
      8 C04         13.0590   -12.7760     4.2850 cy         1 4LY       0.216800
      9 C05         13.2110   -13.9860     5.2810 cy         1 4LY       0.082000
     10 C06         13.8940   -13.6360     6.6380 c3         1 4LY      -0.015300
     11 C07         14.4150   -14.8260     7.3210 c1         1 4LY       0.290900
     12 C11         10.5530   -16.3630     5.8470 cd         1 4LY      -0.277500
     13 C12          9.8350   -17.6470     5.9720 ca         1 4LY       0.314500
     14 C14          9.6480   -20.0480     6.0980 ca         1 4LY       0.175500
     15 C16         11.7960   -20.7390     6.1500 cd         1 4LY      -0.162100
     16 C19          7.7980   -18.7190     6.0640 ca         1 4LY       0.406900
     17 C23          3.2690   -16.7790     6.5490 ca         1 4LY       0.228000
     18 C25          3.5000   -15.6260     5.7760 ca         1 4LY      -0.157800
     19 C27          2.1810   -13.7040     6.8980 c6         1 4LY      -0.031200
     20 C31          0.7320   -13.2650     4.3490 c6         1 4LY       0.198000
     21 C32          1.8090   -14.3290     4.5010 c2         1 4LY      -0.195200
     22 C33          4.7290   -15.5060     5.1040 ca         1 4LY       0.228000
     23 C35          5.7060   -16.5030     5.2110 ca         1 4LY      -0.223500
     24 C37          9.9600   -15.0870     5.9900 cd         1 4LY       0.306900
     25 C39         14.1570   -14.5220     4.1380 cy         1 4LY       0.216800
     26 C41         14.9260    -9.9450     3.0990 c3         1 4LY      -0.064100
     27 F24          2.0910   -16.9450     7.1910 f          1 4LY      -0.175000
     28 F34          4.9840   -14.4190     4.3420 f          1 4LY      -0.175000
     29 N03         14.4580   -13.0890     3.8720 nq         1 4LY      -0.785500
     30 N08         14.8270   -15.7860     7.8350 n1         1 4LY      -0.442000
     31 N09         11.9930   -14.7530     5.5390 na         1 4LY       0.106800
     32 N15         10.4510   -21.1750     6.1560 na         1 4LY      -0.336400
     33 N18          8.3080   -19.9620     6.1220 nb         1 4LY      -0.265000
     34 N20          6.4130   -18.6590     6.1260 nu         1 4LY      -0.931900
     35 N29          0.7580   -12.2530     5.4380 n3         1 4LY      -0.716600
     36 N36          8.4880   -17.5640     6.0020 nb         1 4LY      -0.261000
     37 N38         10.8130   -14.0970     5.8180 nc         1 4LY      -0.530800
     38 S02         15.0170   -12.6520     2.3110 s6         1 4LY       1.210100
     39 H1          12.6970   -16.7990     5.3150 h4         1 4LY       0.162000
     40 H2          12.7140   -18.7550     6.1010 ha         1 4LY       0.204000
     41 H3           4.0440   -18.6570     7.2590 ha         1 4LY       0.152000
     42 H4           0.8200   -12.1590     7.5740 h1         1 4LY       0.033200
     43 H5           0.0110   -13.5910     6.9190 h1         1 4LY       0.033200
     44 H6          12.8960   -11.8040     4.7630 h1         1 4LY       0.085450
     45 H7          12.2870   -12.9410     3.5210 h1         1 4LY       0.085450
     46 H8          14.7280   -12.9410     6.4910 hc         1 4LY       0.095700
     47 H9          13.1860   -13.1310     7.3050 hc         1 4LY       0.095700
     48 H10         12.6330   -21.4340     6.2150 h4         1 4LY       0.221000
     49 H11          2.1480   -14.3240     7.8030 hc         1 4LY       0.058200
     50 H12          3.0130   -13.0010     7.0340 hc         1 4LY       0.058200
     51 H13         -0.2880   -10.5300     6.1250 h1         1 4LY       0.030700
     52 H14         -0.3810   -10.8030     4.3720 h1         1 4LY       0.030700
     53 H15         -1.3310   -11.8210     5.4820 h1         1 4LY       0.030700
     54 H16          0.8530   -12.7710     3.3740 h1         1 4LY       0.040700
     55 H17         -0.2460   -13.7700     4.3290 h1         1 4LY       0.040700
     56 H18          2.0150   -14.9260     3.6130 ha         1 4LY       0.181000
     57 H19          6.6330   -16.3900     4.6610 ha         1 4LY       0.152000
     58 H20          8.9280   -14.8540     6.2220 h4         1 4LY       0.060100
     59 H21         13.6200   -15.0450     3.3350 h1         1 4LY       0.085450
     60 H22         15.0010   -15.1360     4.4730 h1         1 4LY       0.085450
     61 H23         16.6600   -11.2700     3.2680 h1         1 4LY       0.101700
     62 H24         16.2640   -10.7960     1.5920 h1         1 4LY       0.101700
     63 H25         15.4850    -9.0040     3.1740 hc         1 4LY       0.049700
     64 H26         14.0730    -9.7790     2.4290 hc         1 4LY       0.049700
     65 H27         14.5440   -10.1880     4.0970 hc         1 4LY       0.049700
     66 H28         10.1220   -22.1340     6.2090 hn         1 4LY       0.364000
     67 H29          6.0070   -19.5510     6.4050 hn         1 4LY       0.513000
     68 C30         -0.3710   -11.3030     5.3500 c3         1 4LY       0.153100
     69 C40         15.8450   -11.0710     2.5650 c3         1 4LY      -0.304400
     70 O01         16.0260   -13.6500     1.9460 o          1 4LY      -0.543000
     71 O42         13.8310   -12.4660     1.4690 o          1 4LY      -0.543000
@<TRIPOS>BOND
     1     1    12 2   
     2     1    31 1   
     3     1    39 1   
     4     2     3 1   
     5     2    13 ar  
     6     2    14 ar  
     7     3    15 2   
     8     3    40 1   
     9     4     5 ar  
    10     4    23 ar  
    11     4    34 1   
    12     5    17 ar  
    13     5    41 1   
    14     6    18 1   
    15     6    19 1   
    16     6    21 2   
    17     7    19 1   
    18     7    35 1   
    19     7    42 1   
    20     7    43 1   
    21     8     9 1   
    22     8    29 1   
    23     8    44 1   
    24     8    45 1   
    25     9    10 1   
    26     9    25 1   
    27     9    31 1   
    28    10    11 1   
    29    10    46 1   
    30    10    47 1   
    31    11    30 3   
    32    12    13 1   
    33    12    24 1   
    34    13    36 ar  
    35    14    32 1   
    36    14    33 ar  
    37    15    32 1   
    38    15    48 1   
    39    16    33 ar  
    40    16    34 1   
    41    16    36 ar  
    42    17    18 ar  
    43    17    27 1   
    44    18    22 ar  
    45    19    49 1   
    46    19    50 1   
    47    20    21 1   
    48    20    35 1   
    49    20    54 1   
    50    20    55 1   
    51    21    56 1   
    52    22    23 ar  
    53    22    28 1   
    54    23    57 1   
    55    24    37 2   
    56    24    58 1   
    57    25    29 1   
    58    25    59 1   
    59    25    60 1   
    60    26    63 1   
    61    26    64 1   
    62    26    65 1   
    63    26    69 1   
    64    29    38 1   
    65    31    37 1   
    66    32    66 1   
    67    34    67 1   
    68    35    68 1   
    69    38    69 1   
    70    38    70 2   
    71    38    71 2   
    72    51    68 1   
    73    52    68 1   
    74    53    68 1   
    75    61    69 1   
    76    62    69 1   
@<TRIPOS>SUBSTRUCTURE
     1 4LY         1 TEMP              0 ****  ****    0 ROOT
