@<TRIPOS>MOLECULE
4LY
   71    76     1     0     0
SMALL
abcg2


@<TRIPOS>ATOM
      1 C10         11.7930   -15.9380     5.4820 cc         1 4LY      -0.105000
      2 C13         10.5250   -18.7620     5.9990 ca         1 4LY      -0.224800
      3 C17         11.8830   -19.2300     5.9880 cc         1 4LY      -0.198200
      4 C21          5.5390   -17.6460     6.0900 ca         1 4LY       0.382000
      5 C22          4.1940   -17.9480     6.3610 ca         1 4LY      -0.223500
      6 C26          2.4540   -14.6130     5.7190 ce         1 4LY      -0.044400
      7 C28          0.4650   -13.4100     6.6540 c6         1 4LY       0.167800
      8 C04         12.9140   -12.5910     4.3140 cy         1 4LY       0.216800
      9 C05         13.0660   -13.7720     5.3000 cy         1 4LY       0.082000
     10 C06         13.5880   -13.3060     6.6690 c3         1 4LY      -0.015300
     11 C07         13.9790   -14.4240     7.5160 c1         1 4LY       0.290900
     12 C11         10.4740   -16.2450     5.7800 cd         1 4LY      -0.277500
     13 C12          9.8360   -17.5460     5.9220 ca         1 4LY       0.314500
     14 C14          9.7010   -19.9110     6.1550 ca         1 4LY       0.175500
     15 C16         11.8330   -20.5870     6.1280 cd         1 4LY      -0.162100
     16 C19          7.8350   -18.6890     6.1400 ca         1 4LY       0.406900
     17 C23          3.2420   -16.9650     6.2250 ca         1 4LY       0.228000
     18 C25          3.5040   -15.6530     5.8260 ca         1 4LY      -0.157800
     19 C27          1.7030   -14.2380     6.9730 c6         1 4LY      -0.031200
     20 C31          1.2010   -12.8900     4.4270 c6         1 4LY       0.198000
     21 C32          2.2000   -13.9960     4.5650 c2         1 4LY      -0.195200
     22 C33          4.8510   -15.4150     5.5630 ca         1 4LY       0.228000
     23 C35          5.8620   -16.3480     5.6810 ca         1 4LY      -0.223500
     24 C37          9.8470   -14.9810     5.9210 cd         1 4LY       0.306900
     25 C39         14.1670   -14.3370     4.3710 cy         1 4LY       0.216800
     26 C41         15.6460   -10.3150     2.8470 c3         1 4LY      -0.064100
     27 F24          1.9530   -17.3040     6.4770 f          1 4LY      -0.175000
     28 F34          5.2210   -14.1710     5.1730 f          1 4LY      -0.175000
     29 N03         14.2060   -13.0070     3.7170 nq         1 4LY      -0.785500
     30 N08         14.2780   -15.3250     8.1650 n1         1 4LY      -0.442000
     31 N09         11.8840   -14.5910     5.4510 na         1 4LY       0.106800
     32 N15         10.5130   -20.9990     6.2260 na         1 4LY      -0.336400
     33 N18          8.3750   -19.9130     6.2250 nb         1 4LY      -0.265000
     34 N20          6.4570   -18.6760     6.2250 nu         1 4LY      -0.931900
     35 N29          0.7920   -12.3420     5.7140 n3         1 4LY      -0.716600
     36 N36          8.4940   -17.5360     5.9970 nb         1 4LY      -0.261000
     37 N38         10.7030   -13.9890     5.7340 nc         1 4LY      -0.530800
     38 S02         14.6140   -12.7760     2.1380 s6         1 4LY       1.210100
     39 H1          12.6440   -16.5630     5.2780 h4         1 4LY       0.162000
     40 H2          12.7870   -18.6520     5.8990 ha         1 4LY       0.204000
     41 H3           3.8950   -18.9420     6.6670 ha         1 4LY       0.152000
     42 H4           0.0710   -12.9590     7.5660 h1         1 4LY       0.033200
     43 H5          -0.3240   -14.0660     6.2460 h1         1 4LY       0.033200
     44 H6          12.9210   -11.5920     4.7430 h1         1 4LY       0.085450
     45 H7          12.0670   -12.7200     3.6430 h1         1 4LY       0.085450
     46 H8          14.4530   -12.6560     6.5250 hc         1 4LY       0.095700
     47 H9          12.8130   -12.7310     7.1780 hc         1 4LY       0.095700
     48 H10         12.6310   -21.3100     6.1670 h4         1 4LY       0.221000
     49 H11          1.4120   -15.1360     7.5210 hc         1 4LY       0.058200
     50 H12          2.3720   -13.6750     7.6340 hc         1 4LY       0.058200
     51 H13         -0.5530   -10.9560     6.5180 h1         1 4LY       0.030700
     52 H14         -0.0070   -10.6030     4.8690 h1         1 4LY       0.030700
     53 H15         -1.2130   -11.8770     5.1470 h1         1 4LY       0.030700
     54 H16          1.6270   -12.0840     3.8220 h1         1 4LY       0.040700
     55 H17          0.3270   -13.2670     3.8570 h1         1 4LY       0.040700
     56 H18          2.7280   -14.2850     3.6630 ha         1 4LY       0.181000
     57 H19          6.8790   -16.0710     5.4660 ha         1 4LY       0.152000
     58 H20          8.8150   -14.7750     6.1520 h4         1 4LY       0.060100
     59 H21         13.8070   -15.1260     3.7130 h1         1 4LY       0.085450
     60 H22         15.1010   -14.6310     4.8440 h1         1 4LY       0.085450
     61 H23         16.7690   -12.1850     2.7670 h1         1 4LY       0.101700
     62 H24         16.3170   -11.5470     1.1760 h1         1 4LY       0.101700
     63 H25         16.5340    -9.6820     2.8530 hc         1 4LY       0.049700
     64 H26         14.8650    -9.8050     2.2850 hc         1 4LY       0.049700
     65 H27         15.3140   -10.4430     3.8780 hc         1 4LY       0.049700
     66 H28         10.2010   -21.9500     6.3430 hn         1 4LY       0.364000
     67 H29          6.0670   -19.5880     6.4060 hn         1 4LY       0.513000
     68 C30         -0.3040   -11.4010     5.5530 c3         1 4LY       0.153100
     69 C40         15.9950   -11.6520     2.2140 c3         1 4LY      -0.304400
     70 O01         15.0920   -14.0410     1.6190 o          1 4LY      -0.543000
     71 O42         13.5130   -12.1100     1.4730 o          1 4LY      -0.543000
@<TRIPOS>BOND
     1     1    12 2   
     2     1    31 1   
     3     1    39 1   
     4     2     3 1   
     5     2    13 ar  
     6     2    14 ar  
     7     3    15 2   
     8     3    40 1   
     9     4     5 ar  
    10     4    23 ar  
    11     4    34 1   
    12     5    17 ar  
    13     5    41 1   
    14     6    18 1   
    15     6    19 1   
    16     6    21 2   
    17     7    19 1   
    18     7    35 1   
    19     7    42 1   
    20     7    43 1   
    21     8     9 1   
    22     8    29 1   
    23     8    44 1   
    24     8    45 1   
    25     9    10 1   
    26     9    25 1   
    27     9    31 1   
    28    10    11 1   
    29    10    46 1   
    30    10    47 1   
    31    11    30 3   
    32    12    13 1   
    33    12    24 1   
    34    13    36 ar  
    35    14    32 1   
    36    14    33 ar  
    37    15    32 1   
    38    15    48 1   
    39    16    33 ar  
    40    16    34 1   
    41    16    36 ar  
    42    17    18 ar  
    43    17    27 1   
    44    18    22 ar  
    45    19    49 1   
    46    19    50 1   
    47    20    21 1   
    48    20    35 1   
    49    20    54 1   
    50    20    55 1   
    51    21    56 1   
    52    22    23 ar  
    53    22    28 1   
    54    23    57 1   
    55    24    37 2   
    56    24    58 1   
    57    25    29 1   
    58    25    59 1   
    59    25    60 1   
    60    26    63 1   
    61    26    64 1   
    62    26    65 1   
    63    26    69 1   
    64    29    38 1   
    65    31    37 1   
    66    32    66 1   
    67    34    67 1   
    68    35    68 1   
    69    38    69 1   
    70    38    70 2   
    71    38    71 2   
    72    51    68 1   
    73    52    68 1   
    74    53    68 1   
    75    61    69 1   
    76    62    69 1   
@<TRIPOS>SUBSTRUCTURE
     1 4LY         1 TEMP              0 ****  ****    0 ROOT
