@<TRIPOS>MOLECULE
4LZ
   32    32     1     0     0
SMALL
bcc


@<TRIPOS>ATOM
      1 C          -10.2320  -857.9850    10.1610 c          1 4LZ       0.927600
      2 N          -10.7130  -856.3190     8.3880 n8         1 4LZ      -0.896800
      3 O          -10.4570  -858.3920    11.3180 o          1 4LZ      -0.801300
      4 N6         -13.7400  -848.5540     8.1790 n2         1 4LZ      -0.035200
      5 N7         -13.4600  -847.7350     7.4190 n1         1 4LZ       0.206000
      6 N8         -13.1260  -846.8030     6.7950 n2         1 4LZ      -0.248400
      7 CA         -10.7540  -856.5630     9.8200 c3         1 4LZ       0.034500
      8 CB         -12.1780  -856.3460    10.3500 c3         1 4LZ      -0.025100
      9 CG         -12.6940  -854.9630    10.0720 ca         1 4LZ      -0.041300
     10 CZ         -13.6010  -852.3560     9.5300 ca         1 4LZ       0.063100
     11 C31        -14.7750  -850.7570     8.2310 c3         1 4LZ       0.148400
     12 C32        -15.0360  -849.2710     8.2520 c3         1 4LZ       0.122800
     13 CD1        -12.3490  -853.8890    10.8960 ca         1 4LZ      -0.093500
     14 CD2        -13.4990  -854.6910     8.9740 ca         1 4LZ      -0.093500
     15 CE1        -12.7900  -852.6040    10.6370 ca         1 4LZ      -0.179000
     16 CE2        -13.9580  -853.4070     8.6950 ca         1 4LZ      -0.179000
     17 OXT         -9.6020  -858.5850     9.2680 o          1 4LZ      -0.801300
     18 HN         -10.6450  -855.3270     8.2050 hn         1 4LZ       0.332300
     19 HNA         -9.8760  -856.7510     8.0190 hn         1 4LZ       0.332300
     20 HN8        -12.6560  -847.0080     5.9040 hn         1 4LZ       0.511400
     21 HA         -10.0980  -855.8700    10.3770 h1         1 4LZ       0.001700
     22 HB         -12.8410  -857.0850     9.8910 hc         1 4LZ       0.068200
     23 HBA        -12.1840  -856.5310    11.4240 hc         1 4LZ       0.068200
     24 H31        -14.2800  -851.0410     7.2970 h1         1 4LZ       0.068700
     25 H32        -15.7550  -851.2480     8.2530 h1         1 4LZ       0.068700
     26 H33        -15.4720  -848.9510     9.1980 h1         1 4LZ       0.114200
     27 H34        -15.6740  -848.9690     7.4240 h1         1 4LZ       0.114200
     28 HD1        -11.7230  -854.0630    11.7630 ha         1 4LZ       0.151000
     29 HD2        -13.7890  -855.5000     8.3130 ha         1 4LZ       0.151000
     30 HE1        -12.5140  -851.7870    11.2920 ha         1 4LZ       0.123000
     31 HE2        -14.5910  -853.2570     7.8300 ha         1 4LZ       0.123000
     32 OH         -13.9980  -851.0700     9.3550 os         1 4LZ      -0.336900
@<TRIPOS>BOND
     1     1     3 1   
     2     1     7 1   
     3     1    17 1   
     4     2     7 1   
     5     2    18 1   
     6     2    19 1   
     7     4     5 2   
     8     4    12 1   
     9     5     6 2   
    10     6    20 1   
    11     7     8 1   
    12     7    21 1   
    13     8     9 1   
    14     8    22 1   
    15     8    23 1   
    16     9    13 ar  
    17     9    14 ar  
    18    10    15 ar  
    19    10    16 ar  
    20    10    32 1   
    21    11    12 1   
    22    11    24 1   
    23    11    25 1   
    24    11    32 1   
    25    12    26 1   
    26    12    27 1   
    27    13    15 ar  
    28    13    28 1   
    29    14    16 ar  
    30    14    29 1   
    31    15    30 1   
    32    16    31 1   
@<TRIPOS>SUBSTRUCTURE
     1 4LZ         1 TEMP              0 ****  ****    0 ROOT
