@<TRIPOS>MOLECULE
4LZ
   32    32     1     0     0
SMALL
No Charge or Current Charge


@<TRIPOS>ATOM
      1 C          -10.1730  -858.0140    10.2790 c          1 4LZ       0.717000
      2 N          -10.5300  -856.2830     8.3270 n8         1 4LZ      -1.007200
      3 O          -10.9550  -858.9480    10.4060 o          1 4LZ      -0.696000
      4 N6         -13.9120  -848.3420     8.1650 n2         1 4LZ      -0.035200
      5 N7         -13.7360  -847.9450     7.0030 n1         1 4LZ       0.206000
      6 N8         -12.5530  -848.1070     6.6790 n2         1 4LZ      -0.248400
      7 CA         -10.7180  -856.6020     9.7890 c3         1 4LZ       0.034500
      8 CB         -12.1960  -856.3670    10.2110 c3         1 4LZ      -0.025100
      9 CG         -12.6820  -854.9390     9.9650 ca         1 4LZ      -0.041300
     10 CZ         -13.5860  -852.2950     9.5300 ca         1 4LZ       0.063100
     11 C31        -14.9390  -850.5980     8.3460 c3         1 4LZ       0.171600
     12 C32        -15.1570  -849.0720     8.4380 c3         1 4LZ       0.122800
     13 CD1        -12.2060  -853.8810    10.7640 ca         1 4LZ      -0.075500
     14 CD2        -13.6180  -854.6650     8.9480 ca         1 4LZ      -0.075500
     15 CE1        -12.6560  -852.5680    10.5450 ca         1 4LZ      -0.161000
     16 CE2        -14.0690  -853.3510     8.7270 ca         1 4LZ      -0.161000
     17 OXT         -8.9760  -858.1090    10.5240 o          1 4LZ      -0.696000
     18 HN         -10.8390  -855.3200     8.1550 hn         1 4LZ       0.387500
     19 HNA         -9.5240  -856.2610     8.1160 hn         1 4LZ       0.387500
     20 HN8        -12.2990  -847.4220     5.9560 hn         1 4LZ       0.511400
     21 HA         -10.1210  -855.8540    10.3290 h1         1 4LZ       0.001700
     22 HB         -12.8390  -857.0850     9.6870 hc         1 4LZ       0.068200
     23 HBA        -12.2970  -856.5990    11.2780 hc         1 4LZ       0.068200
     24 H31        -14.5680  -850.8550     7.3440 h1         1 4LZ       0.068700
     25 H32        -15.9000  -851.1060     8.4990 h1         1 4LZ       0.068700
     26 H33        -15.5190  -848.8310     9.4440 h1         1 4LZ       0.114200
     27 H34        -15.9480  -848.7850     7.7340 h1         1 4LZ       0.114200
     28 HD1        -11.4860  -854.0780    11.5560 ha         1 4LZ       0.133000
     29 HD2        -13.9950  -855.4730     8.3240 ha         1 4LZ       0.133000
     30 HE1        -12.2820  -851.7580    11.1660 ha         1 4LZ       0.105000
     31 HE2        -14.7900  -853.1770     7.9340 ha         1 4LZ       0.105000
     32 OH         -13.9910  -850.9870     9.3620 os         1 4LZ      -0.360100
@<TRIPOS>BOND
     1     1     3 1   
     2     1     7 1   
     3     1    17 1   
     4     2     7 1   
     5     2    18 1   
     6     2    19 1   
     7     4     5 2   
     8     4    12 1   
     9     5     6 2   
    10     6    20 1   
    11     7     8 1   
    12     7    21 1   
    13     8     9 1   
    14     8    22 1   
    15     8    23 1   
    16     9    13 ar  
    17     9    14 ar  
    18    10    15 ar  
    19    10    16 ar  
    20    10    32 1   
    21    11    12 1   
    22    11    24 1   
    23    11    25 1   
    24    11    32 1   
    25    12    26 1   
    26    12    27 1   
    27    13    15 ar  
    28    13    28 1   
    29    14    16 ar  
    30    14    29 1   
    31    15    30 1   
    32    16    31 1   
@<TRIPOS>SUBSTRUCTURE
     1 4LZ         1 TEMP              0 ****  ****    0 ROOT
