@<TRIPOS>MOLECULE
4M0
   19    19     1     0     0
SMALL
No Charge or Current Charge


@<TRIPOS>ATOM
      1 OAC          2.7390    -0.5350     0.5520 o          1 4M0      -0.731000
      2 CAH          2.0920     0.3330    -0.0210 c          1 4M0       0.721600
      3 OAD          2.6120     1.3010    -0.5570 o          1 4M0      -0.731000
      4 CAK          0.5850     0.2520    -0.0200 ca         1 4M0      -0.206600
      5 CAF         -0.1700     1.4420     0.0770 ca         1 4M0      -0.048000
      6 CAE         -1.5740     1.4020     0.0780 ca         1 4M0      -0.199000
      7 CAI         -2.2510     0.1750    -0.0200 ca         1 4M0      -0.065300
      8 CAA         -3.7710     0.1310    -0.0230 c3         1 4M0      -0.032800
      9 CAG         -1.5030    -1.0100    -0.1240 ca         1 4M0      -0.226000
     10 CAJ         -0.1000    -0.9770    -0.1250 ca         1 4M0       0.330000
     11 NAB          0.5670    -2.1620    -0.2360 nv         1 4M0      -1.104000
     12 H2           0.3330     2.4040     0.1570 ha         1 4M0       0.124000
     13 H3          -2.1360     2.3300     0.1540 ha         1 4M0       0.084000
     14 H4          -4.1600     0.1780    -1.0470 hc         1 4M0       0.021700
     15 H5          -4.1450    -0.7920     0.4360 hc         1 4M0       0.021700
     16 H6          -4.1970     0.9720     0.5360 hc         1 4M0       0.021700
     17 H7          -2.0210    -1.9620    -0.2080 ha         1 4M0       0.080000
     18 H8           0.0630    -3.0220    -0.0330 hn         1 4M0       0.469500
     19 H9           1.5540    -2.1390     0.0330 hn         1 4M0       0.469500
@<TRIPOS>BOND
     1     1     2 1   
     2     2     3 1   
     3     2     4 1   
     4     4     5 ar  
     5     4    10 ar  
     6     5     6 ar  
     7     5    12 1   
     8     6     7 ar  
     9     6    13 1   
    10     7     8 1   
    11     7     9 ar  
    12     8    14 1   
    13     8    15 1   
    14     8    16 1   
    15     9    10 ar  
    16     9    17 1   
    17    10    11 1   
    18    11    18 1   
    19    11    19 1   
@<TRIPOS>SUBSTRUCTURE
     1 4M0         1 TEMP              0 ****  ****    0 ROOT
