@<TRIPOS>MOLECULE
4M0
   19    19     1     0     0
SMALL
bcc


@<TRIPOS>ATOM
      1 OAC          2.7570    -0.6970     0.1080 o          1 4M0      -0.836300
      2 CAH          2.0890     0.3610    -0.0110 c          1 4M0       0.932200
      3 OAD          2.5730     1.5050    -0.0840 o          1 4M0      -0.836300
      4 CAK          0.5770     0.2410    -0.0520 ca         1 4M0      -0.206600
      5 CAF         -0.1890     1.4060    -0.0120 ca         1 4M0      -0.066000
      6 CAE         -1.5720     1.3950     0.0050 ca         1 4M0      -0.217000
      7 CAI         -2.2510     0.1740    -0.0200 ca         1 4M0      -0.065300
      8 CAA         -3.7520     0.1330    -0.0210 c3         1 4M0      -0.032800
      9 CAG         -1.5120    -0.9950    -0.0680 ca         1 4M0      -0.244000
     10 CAJ         -0.1050    -0.9960    -0.0910 ca         1 4M0       0.191600
     11 NAB          0.5570    -2.1900    -0.1990 nv         1 4M0      -0.855200
     12 H2           0.3330     2.3540     0.0180 ha         1 4M0       0.142000
     13 H3          -2.1260     2.3250     0.0460 ha         1 4M0       0.102000
     14 H4          -4.1490     0.3780    -1.0080 hc         1 4M0       0.021700
     15 H5          -4.1300    -0.8530     0.2490 hc         1 4M0       0.021700
     16 H6          -4.1700     0.8580     0.6780 hc         1 4M0       0.021700
     17 H7          -2.0300    -1.9490    -0.0900 ha         1 4M0       0.098000
     18 H8           0.0730    -3.0060     0.1350 hn         1 4M0       0.414300
     19 H9           1.5420    -2.1220     0.0260 hn         1 4M0       0.414300
@<TRIPOS>BOND
     1     1     2 1   
     2     2     3 1   
     3     2     4 1   
     4     4     5 ar  
     5     4    10 ar  
     6     5     6 ar  
     7     5    12 1   
     8     6     7 ar  
     9     6    13 1   
    10     7     8 1   
    11     7     9 ar  
    12     8    14 1   
    13     8    15 1   
    14     8    16 1   
    15     9    10 ar  
    16     9    17 1   
    17    10    11 1   
    18    11    18 1   
    19    11    19 1   
@<TRIPOS>SUBSTRUCTURE
     1 4M0         1 TEMP              0 ****  ****    0 ROOT
