@<TRIPOS>MOLECULE
4M1
   57    61     1     0     0
SMALL
No Charge or Current Charge


@<TRIPOS>ATOM
      1 C21         -0.5600     3.8700     0.1860 ca         1 4M1      -0.108000
      2 C22         -0.4440     3.2150     1.4230 ca         1 4M1      -0.112500
      3 C20         -1.1000     3.1910    -0.9180 ca         1 4M1      -0.112500
      4 C23         -0.8680     1.8810     1.5560 ca         1 4M1      -0.096500
      5 C19         -1.5230     1.8570    -0.7860 ca         1 4M1      -0.096500
      6 C2          -6.7670     0.7470     0.2660 ca         1 4M1      -0.113000
      7 C5          -6.4620    -2.0430    -0.1300 ca         1 4M1      -0.048000
      8 C12          4.7150    -1.2510     0.2930 ca         1 4M1      -0.121500
      9 C14          4.6290     1.0920    -0.3030 ca         1 4M1      -0.121500
     10 C17          7.2910    -0.5230     1.6300 cc         1 4M1       0.384400
     11 C16          7.6010     0.9930     0.0360 cc         1 4M1       0.384400
     12 C10          2.6440    -0.3070    -0.6100 ca         1 4M1      -0.148600
     13 C18         -1.4100     1.1920     0.4530 ca         1 4M1      -0.107300
     14 C1          -7.9070    -0.0570     0.0320 ca         1 4M1      -0.054300
     15 C           -7.7530    -1.4610    -0.1670 ca         1 4M1      -0.096300
     16 C3          -5.5180     0.1210     0.2920 ca         1 4M1      -0.078200
     17 C13          5.3530    -0.0020     0.2020 ca         1 4M1       0.036800
     18 C4          -5.3550    -1.2170     0.1040 ca         1 4M1       0.069400
     19 C11          3.3780    -1.4080    -0.1080 ca         1 4M1       0.162000
     20 C15          3.2930     0.9450    -0.7080 ca         1 4M1       0.162000
     21 C6          -3.3720    -0.4140     0.4130 cc         1 4M1       0.414800
     22 C9           1.2130    -0.4460    -1.0440 c          1 4M1       0.629700
     23 C25         -8.9630    -2.3560    -0.4220 c3         1 4M1      -0.042800
     24 C8          -1.0780    -1.2230    -0.3140 c3         1 4M1       0.112000
     25 C7          -1.8780    -0.2630     0.6020 c3         1 4M1      -0.046700
     26 N5           8.5480    -0.1010     1.6920 nd         1 4M1      -0.348500
     27 N4           8.7410     0.8420     0.6970 nd         1 4M1      -0.348500
     28 N1          -4.2790     0.6410     0.4940 na         1 4M1      -0.304600
     29 N3           6.6830     0.1490     0.6030 na         1 4M1      -0.288800
     30 N           -4.0130    -1.5790     0.1800 nd         1 4M1      -0.584100
     31 N2           0.3730    -1.0680    -0.1450 ns         1 4M1      -0.489900
     32 O            0.8220    -0.0730    -2.1410 o          1 4M1      -0.567100
     33 Cl1          2.6980    -3.0360    -0.0260 cl         1 4M1      -0.152500
     34 Cl           2.4510     2.3890    -1.2730 cl         1 4M1      -0.152500
     35 H1          -0.2310     4.9020     0.0830 ha         1 4M1       0.116000
     36 H2          -0.0240     3.7390     2.2780 ha         1 4M1       0.118500
     37 H3          -1.1890     3.6960    -1.8770 ha         1 4M1       0.118500
     38 H4          -0.7720     1.3870     2.5210 ha         1 4M1       0.121000
     39 H5          -1.9370     1.3420    -1.6500 ha         1 4M1       0.121000
     40 H6          -6.8550     1.8200     0.4220 ha         1 4M1       0.116000
     41 H7          -6.3220    -3.1100    -0.2790 ha         1 4M1       0.127000
     42 H9           5.0900     2.0740    -0.3700 ha         1 4M1       0.148500
     43 H10          6.8020    -1.2510     2.2660 h5         1 4M1       0.069600
     44 H11          7.4010     1.6430    -0.8080 h5         1 4M1       0.069600
     45 H17         -9.6680    -2.3150     0.4170 hc         1 4M1       0.040033
     46 H16         -9.4980    -2.0490    -1.3290 hc         1 4M1       0.040033
     47 H15         -8.6730    -3.4050    -0.5540 hc         1 4M1       0.040033
     48 H19         -1.3450    -2.2620    -0.0790 h1         1 4M1       0.080700
     49 H18         -1.3540    -1.0440    -1.3620 h1         1 4M1       0.080700
     50 H20         -1.6700    -0.5860     1.6290 hc         1 4M1       0.068700
     51 H21         -4.0390     1.6080     0.6670 hn         1 4M1       0.363000
     52 H23          0.7910    -1.3690     0.7270 hn         1 4M1       0.318500
     53 C24         -9.2840     0.5990    -0.0030 c3         1 4M1      -0.046800
     54 H8           5.2570    -2.1210     0.6560 ha         1 4M1       0.148500
     55 H14         -9.7690     0.4480    -0.9750 hc         1 4M1       0.042033
     56 H12         -9.9390     0.1820     0.7710 hc         1 4M1       0.042033
     57 H13         -9.2240     1.6800     0.1680 hc         1 4M1       0.042033
@<TRIPOS>BOND
     1     1     2 ar  
     2     1     3 ar  
     3     1    35 1   
     4     2     4 ar  
     5     2    36 1   
     6     3     5 ar  
     7     3    37 1   
     8     4    13 ar  
     9     4    38 1   
    10     5    13 ar  
    11     5    39 1   
    12     6    14 ar  
    13     6    16 ar  
    14     6    40 1   
    15     7    15 ar  
    16     7    18 ar  
    17     7    41 1   
    18     8    17 ar  
    19     8    19 ar  
    20     8    54 1   
    21     9    17 ar  
    22     9    20 ar  
    23     9    42 1   
    24    10    26 2   
    25    10    29 1   
    26    10    43 1   
    27    11    27 2   
    28    11    29 1   
    29    11    44 1   
    30    12    19 ar  
    31    12    20 ar  
    32    12    22 1   
    33    13    25 1   
    34    14    15 ar  
    35    14    53 1   
    36    15    23 1   
    37    16    18 ar  
    38    16    28 1   
    39    17    29 1   
    40    18    30 1   
    41    19    33 1   
    42    20    34 1   
    43    21    25 1   
    44    21    28 1   
    45    21    30 2   
    46    22    31 1   
    47    22    32 2   
    48    23    45 1   
    49    23    46 1   
    50    23    47 1   
    51    24    25 1   
    52    24    31 1   
    53    24    48 1   
    54    24    49 1   
    55    25    50 1   
    56    26    27 1   
    57    28    51 1   
    58    31    52 1   
    59    53    55 1   
    60    53    56 1   
    61    53    57 1   
@<TRIPOS>SUBSTRUCTURE
     1 4M1         1 TEMP              0 ****  ****    0 ROOT
