@<TRIPOS>MOLECULE
4M1
   57    61     1     0     0
SMALL
abcg2


@<TRIPOS>ATOM
      1 C21         -0.7560     4.0510    -0.2270 ca         1 4M1      -0.108000
      2 C22         -0.7790     3.6120     1.0890 ca         1 4M1      -0.112500
      3 C20         -1.1000     3.1750    -1.2490 ca         1 4M1      -0.112500
      4 C23         -1.1370     2.3010     1.3760 ca         1 4M1      -0.096500
      5 C19         -1.4640     1.8690    -0.9580 ca         1 4M1      -0.096500
      6 C2          -6.7810     0.7530     0.2970 ca         1 4M1      -0.113000
      7 C5          -6.3180    -2.0090    -0.0840 ca         1 4M1      -0.048000
      8 C12          4.8210    -1.4220    -0.1690 ca         1 4M1      -0.121500
      9 C14          4.5000     0.9230     0.3180 ca         1 4M1      -0.121500
     10 C17          7.4600    -0.9610     1.2340 cc         1 4M1       0.384400
     11 C16          7.5240     0.9540     0.2610 cc         1 4M1       0.384400
     12 C10          2.6250    -0.4250    -0.4170 ca         1 4M1      -0.148600
     13 C18         -1.4800     1.4170     0.3600 ca         1 4M1      -0.107300
     14 C1          -7.8380    -0.1130     0.0600 ca         1 4M1      -0.054300
     15 C           -7.6050    -1.4990    -0.1300 ca         1 4M1      -0.096300
     16 C3          -5.4990     0.2200     0.3420 ca         1 4M1      -0.078200
     17 C13          5.3200    -0.1920     0.2320 ca         1 4M1       0.036800
     18 C4          -5.2500    -1.1440     0.1520 ca         1 4M1       0.069400
     19 C11          3.4770    -1.5200    -0.4800 ca         1 4M1       0.162000
     20 C15          3.1660     0.7920    -0.0230 ca         1 4M1       0.162000
     21 C6          -3.3500    -0.2320     0.4730 cc         1 4M1       0.414800
     22 C9           1.1900    -0.5290    -0.8600 c          1 4M1       0.629700
     23 C25         -8.7660    -2.4180    -0.3860 c3         1 4M1      -0.042800
     24 C8          -1.0760    -1.0530    -0.0760 c3         1 4M1       0.112000
     25 C7          -1.8850    -0.0000     0.6940 c3         1 4M1      -0.046700
     26 N5           8.6680    -0.5040     1.3400 nd         1 4M1      -0.348500
     27 N4           8.7100     0.7050     0.7210 nd         1 4M1      -0.348500
     28 N1          -4.2620     0.7730     0.5450 na         1 4M1      -0.304600
     29 N3           6.6840    -0.0730     0.5560 na         1 4M1      -0.288800
     30 N           -3.8990    -1.3920     0.2390 nd         1 4M1      -0.584100
     31 N2           0.3440    -0.8790     0.1130 ns         1 4M1      -0.489900
     32 O            0.8940    -0.3160    -2.0210 o          1 4M1      -0.567100
     33 CL1          2.8480    -3.0470    -0.9770 cl         1 4M1      -0.152500
     34 CL           2.1340     2.1670     0.0740 cl         1 4M1      -0.152500
     35 H1          -0.4720     5.0700    -0.4570 ha         1 4M1       0.116000
     36 H2          -0.5140     4.2860     1.8930 ha         1 4M1       0.118500
     37 H3          -1.0850     3.5110    -2.2780 ha         1 4M1       0.118500
     38 H4          -1.1480     1.9610     2.4050 ha         1 4M1       0.121000
     39 H5          -1.7310     1.2010    -1.7670 ha         1 4M1       0.121000
     40 H6          -6.9550     1.8130     0.4420 ha         1 4M1       0.116000
     41 H7          -6.1420    -3.0680    -0.2310 ha         1 4M1       0.127000
     42 H9           4.8860     1.8740     0.6590 ha         1 4M1       0.148500
     43 H10          7.0900    -1.8920     1.6330 h5         1 4M1       0.069600
     44 H11          7.2240     1.8270    -0.2970 h5         1 4M1       0.069600
     45 H17         -9.4960    -2.3850     0.4250 hc         1 4M1       0.040033
     46 H16         -9.3000    -2.1490    -1.3000 hc         1 4M1       0.040033
     47 H15         -8.4360    -3.4510    -0.4910 hc         1 4M1       0.040033
     48 H19         -1.3640    -2.0470     0.2650 h1         1 4M1       0.080700
     49 H18         -1.2920    -1.0030    -1.1410 h1         1 4M1       0.080700
     50 H20         -1.6960    -0.1560     1.7640 hc         1 4M1       0.068700
     51 H21         -4.0570     1.7480     0.6970 hn         1 4M1       0.363000
     52 H23          0.7170    -1.0420     1.0350 hn         1 4M1       0.318500
     53 C24         -9.2400     0.4220     0.0030 c3         1 4M1      -0.046800
     54 H8           5.4680    -2.2840    -0.2590 ha         1 4M1       0.148500
     55 H14         -9.7120     0.2110    -0.9590 hc         1 4M1       0.042033
     56 H12         -9.8770    -0.0280     0.7680 hc         1 4M1       0.042033
     57 H13         -9.2600     1.5010     0.1500 hc         1 4M1       0.042033
@<TRIPOS>BOND
     1     1     2 ar  
     2     1     3 ar  
     3     1    35 1   
     4     2     4 ar  
     5     2    36 1   
     6     3     5 ar  
     7     3    37 1   
     8     4    13 ar  
     9     4    38 1   
    10     5    13 ar  
    11     5    39 1   
    12     6    14 ar  
    13     6    16 ar  
    14     6    40 1   
    15     7    15 ar  
    16     7    18 ar  
    17     7    41 1   
    18     8    17 ar  
    19     8    19 ar  
    20     8    54 1   
    21     9    17 ar  
    22     9    20 ar  
    23     9    42 1   
    24    10    26 2   
    25    10    29 1   
    26    10    43 1   
    27    11    27 2   
    28    11    29 1   
    29    11    44 1   
    30    12    19 ar  
    31    12    20 ar  
    32    12    22 1   
    33    13    25 1   
    34    14    15 ar  
    35    14    53 1   
    36    15    23 1   
    37    16    18 ar  
    38    16    28 1   
    39    17    29 1   
    40    18    30 1   
    41    19    33 1   
    42    20    34 1   
    43    21    25 1   
    44    21    28 1   
    45    21    30 2   
    46    22    31 1   
    47    22    32 2   
    48    23    45 1   
    49    23    46 1   
    50    23    47 1   
    51    24    25 1   
    52    24    31 1   
    53    24    48 1   
    54    24    49 1   
    55    25    50 1   
    56    26    27 1   
    57    28    51 1   
    58    31    52 1   
    59    53    55 1   
    60    53    56 1   
    61    53    57 1   
@<TRIPOS>SUBSTRUCTURE
     1 4M1         1 TEMP              0 ****  ****    0 ROOT
