@<TRIPOS>MOLECULE
4M2
  107   112     1     0     0
SMALL
bcc


@<TRIPOS>ATOM
      1 C4          10.4910     0.1760     0.3820 ca         1 4M2       0.435800
      2 C2          11.2870     1.1370     2.1870 ca         1 4M2       0.720900
      3 C6          12.8450     0.3950     0.6330 ca         1 4M2       0.783200
      4 C8          10.3430    -0.8090    -1.5580 cc         1 4M2       0.427700
      5 C5          11.7520    -0.0480    -0.1580 ca         1 4M2      -0.208200
      6 N1          12.5450     0.9880     1.8030 nb         1 4M2      -0.836000
      7 CAC         -9.4800     3.2530    -3.2660 c3         1 4M2       0.124700
      8 OBC        -10.5010     2.9610    -2.3450 os         1 4M2      -0.390600
      9 CCB        -10.2260     1.8750    -1.5010 c6         1 4M2       0.142100
     10 CBU        -10.3780     0.5270    -2.2050 c6         1 4M2       0.100100
     11 OAL        -11.6630     0.4740    -2.7710 oh         1 4M2      -0.569800
     12 CCA        -11.1680     1.9580    -0.3040 c6         1 4M2       0.123100
     13 OBB        -10.8920     3.1230     0.4370 os         1 4M2      -0.410600
     14 CAB        -11.9050     4.1000     0.4090 c3         1 4M2       0.128700
     15 CBR        -10.9730     0.7490     0.6190 c6         1 4M2       0.142100
     16 CAE        -12.0110     0.6980     1.7200 c3         1 4M2      -0.086100
     17 OBG        -11.0790    -0.4660    -0.1130 os         1 4M2      -0.422600
     18 CBY        -10.1930    -0.5990    -1.1850 c6         1 4M2       0.307900
     19 OBD         -8.8600    -0.5800    -0.7910 os         1 4M2      -0.443600
     20 CAV         -8.4440    -1.6900    -0.0110 c3         1 4M2       0.185600
     21 CBK         -6.9530    -1.7130    -0.0330 c2         1 4M2       0.048900
     22 OBA         -6.4020    -1.9030    -1.2720 os         1 4M2      -0.326900
     23 CAA         -5.8400    -0.7500    -1.8840 c3         1 4M2       0.130700
     24 CBL         -6.1790    -1.5990     1.0460 c2         1 4M2       0.034900
     25 OBE         -4.8190    -1.6150     0.9150 os         1 4M2      -0.323900
     26 CBS         -6.5530    -1.4080     2.4980 c5         1 4M2       0.178300
     27 OAJ         -7.5850    -2.2660     2.8940 oh         1 4M2      -0.574800
     28 CBT         -5.2230    -1.6880     3.1960 c5         1 4M2       0.081100
     29 OAK         -5.1330    -1.0090     4.4100 oh         1 4M2      -0.583800
     30 CBX         -4.2210    -1.2400     2.1410 c5         1 4M2       0.306900
     31 OBF         -3.0150    -1.9040     2.2880 os         1 4M2      -0.314900
     32 CBN         -1.9100    -1.4250     1.6590 ca         1 4M2       0.147100
     33 CAS         -0.6940    -1.9660     2.0660 ca         1 4M2      -0.177500
     34 CAQ          0.4870    -1.5390     1.4860 ca         1 4M2      -0.078000
     35 CAR         -1.9360    -0.4720     0.6450 ca         1 4M2      -0.177500
     36 CAP         -0.7450    -0.0570     0.0730 ca         1 4M2      -0.078000
     37 CBM          0.4900    -0.5550     0.4910 ca         1 4M2      -0.096800
     38 CAN          1.6990    -0.0650    -0.1680 ce         1 4M2      -0.034200
     39 CBI          2.9190     0.1330     0.3520 cf         1 4M2      -0.184400
     40 CAD          3.2830    -0.0490     1.7960 c3         1 4M2      -0.059900
     41 CBJ          3.9720     0.6020    -0.6060 c          1 4M2       0.670300
     42 OAH          3.7200     0.9610    -1.7510 o          1 4M2      -0.620100
     43 NAZ          5.2370     0.5850    -0.1420 ns         1 4M2      -0.559900
     44 CBZ          6.3350     1.0950    -0.9270 c5         1 4M2       0.094700
     45 CBV          7.6170     1.0990    -0.0920 c5         1 4M2       0.104100
     46 OAM          7.3900     1.4070     1.2460 oh         1 4M2      -0.601800
     47 CBW          6.7300     0.1500    -2.0650 c5         1 4M2       0.120100
     48 CAU          7.4840     0.8590    -3.1750 c3         1 4M2       0.116400
     49 OAI          7.9000    -0.1060    -4.1080 oh         1 4M2      -0.585800
     50 OBH          7.5310    -0.8520    -1.4360 os         1 4M2      -0.376600
     51 CCC          8.1620    -0.3320    -0.3180 c5         1 4M2       0.219800
     52 N9           9.6060    -0.3160    -0.5230 na         1 4M2      -0.277000
     53 N7          11.6250    -0.6670    -1.3790 nd         1 4M2      -0.569100
     54 N3          10.1940     0.7650     1.5420 nb         1 4M2      -0.800000
     55 N6          14.1410     0.2710     0.3280 nh         1 4M2      -0.751300
     56 CAG         14.6220    -0.2000    -0.9550 c3         1 4M2       0.207100
     57 CAF         15.1450     0.8140     1.2230 c3         1 4M2       0.207100
     58 H1          11.1390     1.6300     3.1410 h5         1 4M2       0.045100
     59 H2           9.8810    -1.2460    -2.4290 h5         1 4M2       0.089800
     60 H3          -9.7360     4.1900    -3.7590 h1         1 4M2       0.028033
     61 H4          -8.5090     3.3770    -2.7720 h1         1 4M2       0.028033
     62 H5          -9.3690     2.4850    -4.0390 h1         1 4M2       0.028033
     63 H6          -9.1930     1.9450    -1.1270 h1         1 4M2       0.061700
     64 H7          -9.6020     0.4150    -2.9750 h1         1 4M2       0.050700
     65 H8         -11.7190    -0.3040    -3.3340 ho         1 4M2       0.402000
     66 H9         -12.2070     1.9600    -0.6630 h1         1 4M2       0.075700
     67 H10        -12.8380     3.7420     0.8580 h1         1 4M2       0.031367
     68 H11        -11.5560     4.9520     0.9910 h1         1 4M2       0.031367
     69 H12        -12.1230     4.4440    -0.6060 h1         1 4M2       0.031367
     70 H13         -9.9760     0.8260     1.0760 h1         1 4M2       0.049700
     71 H14        -13.0200     0.6400     1.3100 hc         1 4M2       0.045700
     72 H15        -11.8510    -0.1670     2.3640 hc         1 4M2       0.045700
     73 H16        -11.9460     1.5880     2.3450 hc         1 4M2       0.045700
     74 H17        -10.4460    -1.5690    -1.6400 h2         1 4M2       0.067700
     75 H18         -8.8210    -1.6260     1.0100 h1         1 4M2       0.054700
     76 H19         -8.8390    -2.6180    -0.4500 h1         1 4M2       0.054700
     77 H20         -5.5670    -1.0320    -2.9000 h1         1 4M2       0.035033
     78 H21         -6.5540     0.0740    -1.9300 h1         1 4M2       0.035033
     79 H22         -4.9410    -0.4080    -1.3690 h1         1 4M2       0.035033
     80 H23         -6.8240    -0.3560     2.6670 h1         1 4M2       0.067700
     81 H24         -7.9850    -1.9130     3.6950 ho         1 4M2       0.422000
     82 H25         -5.1250    -2.7760     3.3170 h1         1 4M2       0.080700
     83 H26         -4.4460    -1.4170     4.9470 ho         1 4M2       0.425000
     84 H27         -4.0740    -0.1510     2.1710 h2         1 4M2       0.065700
     85 H28         -0.6780    -2.7290     2.8330 ha         1 4M2       0.147000
     86 H29          1.4130    -2.0020     1.7990 ha         1 4M2       0.137000
     87 H30         -2.8630    -0.0570     0.2730 ha         1 4M2       0.147000
     88 H31         -0.7810     0.6800    -0.7200 ha         1 4M2       0.137000
     89 H32          1.5690     0.1910    -1.2150 ha         1 4M2       0.152000
     90 H33          3.8690    -0.9560     1.9670 hc         1 4M2       0.047033
     91 H34          3.8700     0.7960     2.1640 hc         1 4M2       0.047033
     92 H35          2.4000    -0.1100     2.4280 hc         1 4M2       0.047033
     93 H36          5.4140     0.3800     0.8280 hn         1 4M2       0.341500
     94 H37          6.0990     2.0950    -1.3000 h1         1 4M2       0.087700
     95 H38          8.3060     1.8190    -0.5550 h1         1 4M2       0.058700
     96 H39          8.2520     1.3120     1.6930 ho         1 4M2       0.460000
     97 H40          5.8650    -0.3570    -2.4940 h1         1 4M2       0.119700
     98 H41          6.8030     1.5970    -3.6190 h1         1 4M2       0.029200
     99 H42          8.3370     1.4200    -2.7690 h1         1 4M2       0.029200
    100 H43          8.4350     0.3340    -4.7750 ho         1 4M2       0.408000
    101 H44          7.9630    -0.9660     0.5530 h2         1 4M2       0.097700
    102 H45         15.0390     0.6250    -1.5370 h1         1 4M2       0.051367
    103 H46         15.4100    -0.9370    -0.8010 h1         1 4M2       0.051367
    104 H47         13.8270    -0.6590    -1.5300 h1         1 4M2       0.051367
    105 H48         14.9720     0.5050     2.2510 h1         1 4M2       0.051367
    106 H49         16.1170     0.4390     0.9100 h1         1 4M2       0.051367
    107 H50         15.1720     1.9050     1.1920 h1         1 4M2       0.051367
@<TRIPOS>BOND
     1     1     5 ar  
     2     1    52 1   
     3     1    54 ar  
     4     2     6 ar  
     5     2    54 ar  
     6     2    58 1   
     7     3     5 ar  
     8     3     6 ar  
     9     3    55 1   
    10     4    52 1   
    11     4    53 2   
    12     4    59 1   
    13     5    53 1   
    14     7     8 1   
    15     7    60 1   
    16     7    61 1   
    17     7    62 1   
    18     8     9 1   
    19     9    10 1   
    20     9    12 1   
    21     9    63 1   
    22    10    11 1   
    23    10    18 1   
    24    10    64 1   
    25    11    65 1   
    26    12    13 1   
    27    12    15 1   
    28    12    66 1   
    29    13    14 1   
    30    14    67 1   
    31    14    68 1   
    32    14    69 1   
    33    15    16 1   
    34    15    17 1   
    35    15    70 1   
    36    16    71 1   
    37    16    72 1   
    38    16    73 1   
    39    17    18 1   
    40    18    19 1   
    41    18    74 1   
    42    19    20 1   
    43    20    21 1   
    44    20    75 1   
    45    20    76 1   
    46    21    22 1   
    47    21    24 2   
    48    22    23 1   
    49    23    77 1   
    50    23    78 1   
    51    23    79 1   
    52    24    25 1   
    53    24    26 1   
    54    25    30 1   
    55    26    27 1   
    56    26    28 1   
    57    26    80 1   
    58    27    81 1   
    59    28    29 1   
    60    28    30 1   
    61    28    82 1   
    62    29    83 1   
    63    30    31 1   
    64    30    84 1   
    65    31    32 1   
    66    32    33 ar  
    67    32    35 ar  
    68    33    34 ar  
    69    33    85 1   
    70    34    37 ar  
    71    34    86 1   
    72    35    36 ar  
    73    35    87 1   
    74    36    37 ar  
    75    36    88 1   
    76    37    38 1   
    77    38    39 2   
    78    38    89 1   
    79    39    40 1   
    80    39    41 1   
    81    40    90 1   
    82    40    91 1   
    83    40    92 1   
    84    41    42 2   
    85    41    43 1   
    86    43    44 1   
    87    43    93 1   
    88    44    45 1   
    89    44    47 1   
    90    44    94 1   
    91    45    46 1   
    92    45    51 1   
    93    45    95 1   
    94    46    96 1   
    95    47    48 1   
    96    47    50 1   
    97    47    97 1   
    98    48    49 1   
    99    48    98 1   
   100    48    99 1   
   101    49   100 1   
   102    50    51 1   
   103    51    52 1   
   104    51   101 1   
   105    55    56 1   
   106    55    57 1   
   107    56   102 1   
   108    56   103 1   
   109    56   104 1   
   110    57   105 1   
   111    57   106 1   
   112    57   107 1   
@<TRIPOS>SUBSTRUCTURE
     1 4M2         1 TEMP              0 ****  ****    0 ROOT
