@<TRIPOS>MOLECULE
4M2
  107   112     1     0     0
SMALL
No Charge or Current Charge


@<TRIPOS>ATOM
      1 C4          10.3840     0.9250     0.1590 ca         1 4M2       0.107500
      2 C2          11.5040     2.9170     0.0870 ca         1 4M2       0.194900
      3 C6          12.7920     1.0140     0.3000 ca         1 4M2       0.454900
      4 C8          10.0460    -1.2690     0.3330 cc         1 4M2       0.427700
      5 C5          11.5820     0.2550     0.2860 ca         1 4M2      -0.077600
      6 N1          12.7300     2.3610     0.1910 nb         1 4M2      -0.310000
      7 CAC         -9.2300     4.3810    -1.3190 c3         1 4M2       0.147900
      8 OBC        -10.1670     3.6180    -0.5370 os         1 4M2      -0.437000
      9 CCB         -9.9640     2.1780    -0.4640 c6         1 4M2       0.165300
     10 CBU        -10.1490     1.5110    -1.8730 c6         1 4M2       0.123300
     11 OAL        -11.4390     1.8670    -2.4430 oh         1 4M2      -0.692000
     12 CCA        -10.9350     1.5230     0.5850 c6         1 4M2       0.146300
     13 OBB        -10.6810     1.9590     1.9530 os         1 4M2      -0.457000
     14 CAB        -10.9690     3.3250     2.3040 c3         1 4M2       0.151900
     15 CBR        -10.8010    -0.0330     0.5430 c6         1 4M2       0.165300
     16 CAE        -11.8710    -0.7520     1.4030 c3         1 4M2      -0.086100
     17 OBG        -10.9350    -0.5590    -0.7970 os         1 4M2      -0.469000
     18 CBY         -9.9760    -0.0380    -1.7400 c6         1 4M2       0.354300
     19 OBD         -8.6440    -0.3800    -1.3150 os         1 4M2      -0.490000
     20 CAV         -8.3160    -1.7840    -1.3160 c3         1 4M2       0.208800
     21 CBK         -6.8220    -1.9260    -1.0440 c2         1 4M2       0.048900
     22 OBA         -6.1660    -2.2720    -2.2160 os         1 4M2      -0.350100
     23 CAA         -4.7410    -2.4650    -2.2810 c3         1 4M2       0.153900
     24 CBL         -6.2350    -1.7080     0.1630 c2         1 4M2       0.034900
     25 OBE         -4.8850    -1.7300     0.4220 os         1 4M2      -0.347100
     26 CBS         -6.9940    -1.2910     1.4300 c5         1 4M2       0.201500
     27 OAJ         -8.0420    -2.1960     1.8010 oh         1 4M2      -0.637000
     28 CBT         -5.8750    -1.2850     2.5070 c5         1 4M2       0.104300
     29 OAK         -6.1400    -0.3890     3.6060 oh         1 4M2      -0.646000
     30 CBX         -4.6910    -0.8930     1.5830 c5         1 4M2       0.353300
     31 OBF         -3.4600    -1.2630     2.2530 os         1 4M2      -0.338100
     32 CBN         -2.3160    -0.9740     1.5150 ca         1 4M2       0.147100
     33 CAS         -1.1140    -1.5110     2.0030 ca         1 4M2      -0.159500
     34 CAQ          0.1050    -1.2770     1.3430 ca         1 4M2      -0.060000
     35 CAR         -2.2780    -0.1770     0.3400 ca         1 4M2      -0.159500
     36 CAP         -1.0570     0.0550    -0.3180 ca         1 4M2      -0.060000
     37 CBM          0.1410    -0.4820     0.1830 ca         1 4M2      -0.096800
     38 CAN          1.4190    -0.2370    -0.5430 ce         1 4M2      -0.084200
     39 CBI          2.6450     0.1390    -0.0560 cf         1 4M2      -0.184400
     40 CAD          2.8680     0.4480     1.4270 c3         1 4M2      -0.059900
     41 CBJ          3.8040     0.3190    -1.0040 c          1 4M2       0.603300
     42 OAH          3.6910     0.1600    -2.2130 o          1 4M2      -0.620100
     43 NAZ          5.0100     0.6640    -0.4290 ns         1 4M2      -0.492900
     44 CBZ          6.1800     0.9190    -1.2980 c5         1 4M2       0.094700
     45 CBV          7.3150     1.4590    -0.3570 c5         1 4M2       0.127300
     46 OAM          6.8350     2.3610     0.6640 oh         1 4M2      -0.724000
     47 CBW          6.7610    -0.4630    -1.7210 c5         1 4M2       0.143300
     48 CAU          7.8510    -0.3770    -2.8360 c3         1 4M2       0.139600
     49 OAI          8.2470    -1.6870    -3.2790 oh         1 4M2      -0.708000
     50 OBH          7.3190    -0.9620    -0.4820 os         1 4M2      -0.423000
     51 CCC          7.9490     0.1290     0.2350 c5         1 4M2       0.272300
     52 N9           9.4070    -0.0390     0.1640 na         1 4M2      -0.306300
     53 N7          11.3820    -1.1290     0.3860 nd         1 4M2      -0.569100
     54 N3          10.3220     2.2660     0.0700 nb         1 4M2      -0.274000
     55 N6          14.1030     0.4600     0.4210 nh         1 4M2      -0.751300
     56 CAG         14.3250    -0.9020     0.9600 c3         1 4M2       0.207100
     57 CAF         15.3120     1.2570     0.0890 c3         1 4M2       0.207100
     58 H1          11.4650     4.0020     0.0070 h5         1 4M2       0.045100
     59 H2           9.4980    -2.2020     0.4070 h5         1 4M2       0.089800
     60 H3          -9.4390     5.4530    -1.2200 h1         1 4M2       0.028033
     61 H4          -8.2020     4.2010    -0.9800 h1         1 4M2       0.028033
     62 H5          -9.2980     4.1230    -2.3840 h1         1 4M2       0.028033
     63 H6          -8.9340     1.9950    -0.1260 h1         1 4M2       0.061700
     64 H7          -9.3450     1.8690    -2.5310 h1         1 4M2       0.050700
     65 H8         -11.4410     1.5720    -3.3830 ho         1 4M2       0.501000
     66 H9         -11.9690     1.7840     0.3180 h1         1 4M2       0.075700
     67 H10        -11.9600     3.6250     1.9380 h1         1 4M2       0.031367
     68 H11        -10.9600     3.4440     3.3950 h1         1 4M2       0.031367
     69 H12        -10.2170     4.0090     1.8940 h1         1 4M2       0.031367
     70 H13         -9.8130    -0.3130     0.9340 h1         1 4M2       0.049700
     71 H14        -12.8850    -0.4970     1.0710 hc         1 4M2       0.045700
     72 H15        -11.7580    -1.8400     1.3400 hc         1 4M2       0.045700
     73 H16        -11.7840    -0.4730     2.4590 hc         1 4M2       0.045700
     74 H17        -10.1600    -0.4930    -2.7250 h2         1 4M2       0.067700
     75 H18         -8.9000    -2.3280    -0.5640 h1         1 4M2       0.054700
     76 H19         -8.5540    -2.2290    -2.2910 h1         1 4M2       0.054700
     77 H20         -4.4460    -2.7530    -3.2970 h1         1 4M2       0.035033
     78 H21         -4.2080    -1.5400    -2.0270 h1         1 4M2       0.035033
     79 H22         -4.4210    -3.2630    -1.5990 h1         1 4M2       0.035033
     80 H23         -7.4000    -0.2770     1.2980 h1         1 4M2       0.067700
     81 H24         -8.3230    -1.9310     2.7050 ho         1 4M2       0.461000
     82 H25         -5.7110    -2.3060     2.8810 h1         1 4M2       0.080700
     83 H26         -5.3570    -0.4240     4.2030 ho         1 4M2       0.464000
     84 H27         -4.7270     0.1740     1.3280 h2         1 4M2       0.065700
     85 H28         -1.1280    -2.1240     2.9010 ha         1 4M2       0.129000
     86 H29          1.0180    -1.7210     1.7310 ha         1 4M2       0.119000
     87 H30         -3.1680     0.2740    -0.0870 ha         1 4M2       0.129000
     88 H31         -1.0420     0.6640    -1.2200 ha         1 4M2       0.119000
     89 H32          1.3200    -0.3810    -1.6220 ha         1 4M2       0.202000
     90 H33          3.3860    -0.3780     1.9300 hc         1 4M2       0.047033
     91 H34          3.4610     1.3590     1.5730 hc         1 4M2       0.047033
     92 H35          1.9260     0.6220     1.9590 hc         1 4M2       0.047033
     93 H36          5.0240     0.8320     0.5680 hn         1 4M2       0.341500
     94 H37          5.9630     1.5860    -2.1440 h1         1 4M2       0.087700
     95 H38          8.0450     1.9730    -0.9950 h1         1 4M2       0.058700
     96 H39          7.6200     2.8490     1.0140 ho         1 4M2       0.559000
     97 H40          5.9760    -1.1450    -2.0720 h1         1 4M2       0.119700
     98 H41          7.4320     0.1880    -3.6810 h1         1 4M2       0.029200
     99 H42          8.7210     0.1840    -2.4720 h1         1 4M2       0.029200
    100 H43          8.9470    -1.5650    -3.9630 ho         1 4M2       0.507000
    101 H44          7.6970     0.0410     1.3000 h2         1 4M2       0.097700
    102 H45         14.1020    -1.6610     0.1990 h1         1 4M2       0.051367
    103 H46         15.3670    -1.0360     1.2810 h1         1 4M2       0.051367
    104 H47         13.6900    -1.0790     1.8380 h1         1 4M2       0.051367
    105 H48         15.5190     1.9910     0.8790 h1         1 4M2       0.051367
    106 H49         16.1950     0.6120    -0.0190 h1         1 4M2       0.051367
    107 H50         15.1780     1.7900    -0.8620 h1         1 4M2       0.051367
@<TRIPOS>BOND
     1     1     5 ar  
     2     1    52 1   
     3     1    54 ar  
     4     2     6 ar  
     5     2    54 ar  
     6     2    58 1   
     7     3     5 ar  
     8     3     6 ar  
     9     3    55 1   
    10     4    52 1   
    11     4    53 2   
    12     4    59 1   
    13     5    53 1   
    14     7     8 1   
    15     7    60 1   
    16     7    61 1   
    17     7    62 1   
    18     8     9 1   
    19     9    10 1   
    20     9    12 1   
    21     9    63 1   
    22    10    11 1   
    23    10    18 1   
    24    10    64 1   
    25    11    65 1   
    26    12    13 1   
    27    12    15 1   
    28    12    66 1   
    29    13    14 1   
    30    14    67 1   
    31    14    68 1   
    32    14    69 1   
    33    15    16 1   
    34    15    17 1   
    35    15    70 1   
    36    16    71 1   
    37    16    72 1   
    38    16    73 1   
    39    17    18 1   
    40    18    19 1   
    41    18    74 1   
    42    19    20 1   
    43    20    21 1   
    44    20    75 1   
    45    20    76 1   
    46    21    22 1   
    47    21    24 2   
    48    22    23 1   
    49    23    77 1   
    50    23    78 1   
    51    23    79 1   
    52    24    25 1   
    53    24    26 1   
    54    25    30 1   
    55    26    27 1   
    56    26    28 1   
    57    26    80 1   
    58    27    81 1   
    59    28    29 1   
    60    28    30 1   
    61    28    82 1   
    62    29    83 1   
    63    30    31 1   
    64    30    84 1   
    65    31    32 1   
    66    32    33 ar  
    67    32    35 ar  
    68    33    34 ar  
    69    33    85 1   
    70    34    37 ar  
    71    34    86 1   
    72    35    36 ar  
    73    35    87 1   
    74    36    37 ar  
    75    36    88 1   
    76    37    38 1   
    77    38    39 2   
    78    38    89 1   
    79    39    40 1   
    80    39    41 1   
    81    40    90 1   
    82    40    91 1   
    83    40    92 1   
    84    41    42 2   
    85    41    43 1   
    86    43    44 1   
    87    43    93 1   
    88    44    45 1   
    89    44    47 1   
    90    44    94 1   
    91    45    46 1   
    92    45    51 1   
    93    45    95 1   
    94    46    96 1   
    95    47    48 1   
    96    47    50 1   
    97    47    97 1   
    98    48    49 1   
    99    48    98 1   
   100    48    99 1   
   101    49   100 1   
   102    50    51 1   
   103    51    52 1   
   104    51   101 1   
   105    55    56 1   
   106    55    57 1   
   107    56   102 1   
   108    56   103 1   
   109    56   104 1   
   110    57   105 1   
   111    57   106 1   
   112    57   107 1   
@<TRIPOS>SUBSTRUCTURE
     1 4M2         1 TEMP              0 ****  ****    0 ROOT
