@<TRIPOS>MOLECULE
4M3
   58    59     1     0     0
SMALL
No Charge or Current Charge


@<TRIPOS>ATOM
      1 C28         -5.9880    -0.5830     0.8520 ca         1 4M3      -0.084000
      2 C12          3.4380     0.7690    -0.0910 c          1 4M3       0.607100
      3 C14          2.3480     1.0090    -1.1870 c3         1 4M3       0.048700
      4 C20          0.3390    -0.4520    -0.7080 c          1 4M3       0.605100
      5 C31         -8.3980    -0.6670    -0.5780 ca         1 4M3      -0.092000
      6 C15          2.4250     2.4230    -1.8270 c3         1 4M3      -0.222400
      7 C32         -7.1710    -0.6580    -1.2630 ca         1 4M3      -0.084000
      8 C22         -1.0560    -0.4610    -0.0840 c3         1 4M3      -0.184400
      9 C27         -5.9460    -0.6120    -0.5620 ca         1 4M3      -0.124600
     10 C01          6.2000    -1.3490     1.9450 ca         1 4M3      -0.093000
     11 C02          6.3820    -2.7100     2.2510 ca         1 4M3      -0.129000
     12 C03          6.1420    -0.9220     0.6040 ca         1 4M3      -0.002300
     13 C04          6.5070    -3.6520     1.2180 ca         1 4M3      -0.157000
     14 C05          5.9450     0.5570     0.2770 c3         1 4M3      -0.010000
     15 C06          6.4490    -3.2350    -0.1210 ca         1 4M3      -0.129000
     16 C07          7.2160     1.1560    -0.4020 c          1 4M3       0.727000
     17 C08          6.2680    -1.8750    -0.4280 ca         1 4M3      -0.093000
     18 O09          7.2700     1.1850    -1.6250 o          1 4M3      -0.720500
     19 O10          8.1040     1.5900     0.3190 o          1 4M3      -0.720500
     20 N11          4.7370     0.7810    -0.5540 ns         1 4M3      -0.467900
     21 O17          0.9580     3.7960    -0.5730 o          1 4M3      -0.738500
     22 O18          3.0660     3.9930    -0.1760 o          1 4M3      -0.738500
     23 N19          0.9930     0.7560    -0.6560 ns         1 4M3      -0.443900
     24 O21          0.8470    -1.4550    -1.1900 o          1 4M3      -0.649100
     25 C23         -2.1350    -0.5440    -1.1770 c3         1 4M3       0.102000
     26 N24         -3.4780    -0.5560    -0.5990 ns         1 4M3      -0.490900
     27 C25         -4.6410    -0.6050    -1.3370 c          1 4M3       0.603700
     28 O26         -4.6080    -0.6410    -2.5610 o          1 4M3      -0.610100
     29 C29         -7.2170    -0.5900     1.5370 ca         1 4M3      -0.092000
     30 C30         -8.4430    -0.6140     0.8330 ca         1 4M3      -0.141900
     31 C33         -9.7610    -0.6540     1.5530 ce         1 4M3       0.664800
     32 N34        -10.8460    -1.0200     1.0060 n2         1 4M3      -0.833100
     33 N35         -9.8130    -0.1780     2.8160 nv         1 4M3      -1.076200
     34 H1          -5.0760    -0.5610     1.4430 ha         1 4M3       0.131500
     35 H2           2.5470     0.2800    -1.9830 h1         1 4M3       0.052700
     36 H3          -9.3200    -0.7050    -1.1540 ha         1 4M3       0.123500
     37 H5           3.4400     2.5390    -2.2260 hc         1 4M3       0.035700
     38 H4           1.6530     2.4290    -2.6060 hc         1 4M3       0.035700
     39 H6          -7.1780    -0.6900    -2.3510 ha         1 4M3       0.131500
     40 H7          -1.1480    -1.3410     0.5630 hc         1 4M3       0.061700
     41 H8          -1.2180     0.4530     0.5000 hc         1 4M3       0.061700
     42 H9           6.1020    -0.6270     2.7520 ha         1 4M3       0.114500
     43 H10          6.4250    -3.0310     3.2890 ha         1 4M3       0.079500
     44 H11          6.6470    -4.7040     1.4550 ha         1 4M3       0.074000
     45 H12          5.8080     1.1130     1.2130 h1         1 4M3       0.064700
     46 H13          6.5450    -3.9640    -0.9230 ha         1 4M3       0.079500
     47 H14          6.2240    -1.5620    -1.4680 ha         1 4M3       0.114500
     48 H16          4.8710     0.9730    -1.5410 hn         1 4M3       0.349500
     49 H18          0.4950     1.5290    -0.2280 hn         1 4M3       0.348500
     50 H19         -2.0450     0.3180    -1.8530 h1         1 4M3       0.067200
     51 H20         -1.9940    -1.4590    -1.7690 h1         1 4M3       0.067200
     52 H21         -3.5720    -0.5280     0.4080 hn         1 4M3       0.310500
     53 H22         -7.2030    -0.5900     2.6240 ha         1 4M3       0.123500
     54 H23        -11.5470    -1.1440     1.7440 hn         1 4M3       0.362400
     55 H25         -9.0120     0.3770     3.0930 hn         1 4M3       0.459500
     56 H352       -10.7100     0.1810     3.1210 hn         1 4M3       0.459500
     57 C16          2.1260     3.5090    -0.7850 c          1 4M3       0.722000
     58 O13          3.1780     0.5690     1.0920 o          1 4M3      -0.661100
@<TRIPOS>BOND
     1     1     9 ar  
     2     1    29 ar  
     3     1    34 1   
     4     2     3 1   
     5     2    20 1   
     6     2    58 2   
     7     3     6 1   
     8     3    23 1   
     9     3    35 1   
    10     4     8 1   
    11     4    23 1   
    12     4    24 2   
    13     5     7 ar  
    14     5    30 ar  
    15     5    36 1   
    16     6    37 1   
    17     6    38 1   
    18     6    57 1   
    19     7     9 ar  
    20     7    39 1   
    21     8    25 1   
    22     8    40 1   
    23     8    41 1   
    24     9    27 1   
    25    10    11 ar  
    26    10    12 ar  
    27    10    42 1   
    28    11    13 ar  
    29    11    43 1   
    30    12    14 1   
    31    12    17 ar  
    32    13    15 ar  
    33    13    44 1   
    34    14    16 1   
    35    14    20 1   
    36    14    45 1   
    37    15    17 ar  
    38    15    46 1   
    39    16    18 1   
    40    16    19 1   
    41    17    47 1   
    42    20    48 1   
    43    21    57 1   
    44    22    57 1   
    45    23    49 1   
    46    25    26 1   
    47    25    50 1   
    48    25    51 1   
    49    26    27 1   
    50    26    52 1   
    51    27    28 2   
    52    29    30 ar  
    53    29    53 1   
    54    30    31 1   
    55    31    32 2   
    56    31    33 1   
    57    32    54 1   
    58    33    55 1   
    59    33    56 1   
@<TRIPOS>SUBSTRUCTURE
     1 4M3         1 TEMP              0 ****  ****    0 ROOT
