@<TRIPOS>MOLECULE
4M3
   58    59     1     0     0
SMALL
bcc


@<TRIPOS>ATOM
      1 C28         -5.8200    -0.0790     0.7010 ca         1 4M3      -0.102000
      2 C12          3.2310     0.6910    -0.1750 c          1 4M3       0.674100
      3 C14          2.4630     1.2310    -1.3890 c3         1 4M3       0.048700
      4 C20          0.3030     0.0980    -1.2860 c          1 4M3       0.672100
      5 C31         -8.0560    -1.4310    -0.2160 ca         1 4M3      -0.110000
      6 C15          2.9070     2.6240    -1.8250 c3         1 4M3      -0.222400
      7 C32         -6.9030    -1.4060    -0.9780 ca         1 4M3      -0.102000
      8 C22         -1.0730     0.1690    -0.6580 c3         1 4M3      -0.184400
      9 C27         -5.7660    -0.7420    -0.5210 ca         1 4M3      -0.124600
     10 C01          5.8230    -1.7750     2.0180 ca         1 4M3      -0.111000
     11 C02          5.9990    -3.1510     2.0440 ca         1 4M3      -0.147000
     12 C03          5.5800    -1.1090     0.8210 ca         1 4M3      -0.002300
     13 C04          5.9390    -3.8850     0.8660 ca         1 4M3      -0.175000
     14 C05          5.4530     0.3960     0.8040 c3         1 4M3      -0.010000
     15 C06          5.6980    -3.2280    -0.3340 ca         1 4M3      -0.147000
     16 C07          6.8690     1.0100     0.5780 c          1 4M3       0.937600
     17 C08          5.5210    -1.8500    -0.3560 ca         1 4M3      -0.111000
     18 O09          7.0370     1.6510    -0.4760 o          1 4M3      -0.825800
     19 O10          7.6940     0.7830     1.4740 o          1 4M3      -0.825800
     20 N11          4.5560     0.8750    -0.2110 ns         1 4M3      -0.534900
     21 O17          2.1810     3.4090     0.3030 o          1 4M3      -0.843800
     22 O18          3.3820     4.7840    -0.9740 o          1 4M3      -0.843800
     23 N19          1.0510     1.2000    -1.1200 ns         1 4M3      -0.510900
     24 O21          0.6830    -0.8920    -1.8980 o          1 4M3      -0.649100
     25 C23         -2.0980    -0.6430    -1.4340 c3         1 4M3       0.102000
     26 N24         -3.3730    -0.6270    -0.7510 ns         1 4M3      -0.557900
     27 C25         -4.5490    -0.7420    -1.3900 c          1 4M3       0.670700
     28 O26         -4.6450    -0.8430    -2.6060 o          1 4M3      -0.610100
     29 C29         -6.9840    -0.0860     1.4540 ca         1 4M3      -0.110000
     30 C30         -8.1150    -0.7630     1.0060 ca         1 4M3      -0.141900
     31 C33         -9.3750    -0.8010     1.8000 ce         1 4M3       0.664800
     32 N34        -10.1630    -1.7920     1.6370 n2         1 4M3      -0.833100
     33 N35         -9.5400     0.2280     2.6820 nv         1 4M3      -0.965800
     34 H1          -4.9660     0.4720     1.0740 ha         1 4M3       0.149500
     35 H2           2.6590     0.5370    -2.2110 h1         1 4M3       0.052700
     36 H3          -8.9280    -1.9630    -0.5720 ha         1 4M3       0.141500
     37 H5           3.9200     2.5930    -2.2340 hc         1 4M3       0.035700
     38 H4           2.2810     2.9330    -2.6690 hc         1 4M3       0.035700
     39 H6          -6.8820    -1.9160    -1.9320 ha         1 4M3       0.149500
     40 H7          -0.9780    -0.2210     0.3610 hc         1 4M3       0.061700
     41 H8          -1.4050     1.2050    -0.5620 hc         1 4M3       0.061700
     42 H9           5.8660    -1.2100     2.9410 ha         1 4M3       0.132500
     43 H10          6.1820    -3.6530     2.9860 ha         1 4M3       0.097500
     44 H11          6.0720    -4.9590     0.8820 ha         1 4M3       0.092000
     45 H12          5.1060     0.7230     1.7900 h1         1 4M3       0.064700
     46 H13          5.6480    -3.7900    -1.2580 ha         1 4M3       0.097500
     47 H14          5.3260    -1.3530    -1.2980 ha         1 4M3       0.132500
     48 H16          5.0030     1.4030    -0.9480 hn         1 4M3       0.349500
     49 H18          0.7330     1.9180    -0.4860 hn         1 4M3       0.348500
     50 H19         -2.2350    -0.2210    -2.4290 h1         1 4M3       0.067200
     51 H20         -1.7460    -1.6690    -1.5640 h1         1 4M3       0.067200
     52 H21         -3.3550    -0.7330     0.2510 hn         1 4M3       0.310500
     53 H22         -6.9910     0.4340     2.4030 ha         1 4M3       0.141500
     54 H23        -10.9980    -1.6980     2.2100 hn         1 4M3       0.362400
     55 H25         -9.1100     1.1140     2.4710 hn         1 4M3       0.404300
     56 H352       -10.4380     0.3130     3.1320 hn         1 4M3       0.404300
     57 C16          2.8220     3.7010    -0.7300 c          1 4M3       0.932600
     58 O13          2.6720     0.0810     0.7230 o          1 4M3      -0.661100
@<TRIPOS>BOND
     1     1     9 ar  
     2     1    29 ar  
     3     1    34 1   
     4     2     3 1   
     5     2    20 1   
     6     2    58 2   
     7     3     6 1   
     8     3    23 1   
     9     3    35 1   
    10     4     8 1   
    11     4    23 1   
    12     4    24 2   
    13     5     7 ar  
    14     5    30 ar  
    15     5    36 1   
    16     6    37 1   
    17     6    38 1   
    18     6    57 1   
    19     7     9 ar  
    20     7    39 1   
    21     8    25 1   
    22     8    40 1   
    23     8    41 1   
    24     9    27 1   
    25    10    11 ar  
    26    10    12 ar  
    27    10    42 1   
    28    11    13 ar  
    29    11    43 1   
    30    12    14 1   
    31    12    17 ar  
    32    13    15 ar  
    33    13    44 1   
    34    14    16 1   
    35    14    20 1   
    36    14    45 1   
    37    15    17 ar  
    38    15    46 1   
    39    16    18 1   
    40    16    19 1   
    41    17    47 1   
    42    20    48 1   
    43    21    57 1   
    44    22    57 1   
    45    23    49 1   
    46    25    26 1   
    47    25    50 1   
    48    25    51 1   
    49    26    27 1   
    50    26    52 1   
    51    27    28 2   
    52    29    30 ar  
    53    29    53 1   
    54    30    31 1   
    55    31    32 2   
    56    31    33 1   
    57    32    54 1   
    58    33    55 1   
    59    33    56 1   
@<TRIPOS>SUBSTRUCTURE
     1 4M3         1 TEMP              0 ****  ****    0 ROOT
