@<TRIPOS>MOLECULE
4M4
   21    21     1     0     0
SMALL
bcc


@<TRIPOS>ATOM
      1 C3          -1.0350    -1.1960    -0.1040 ca         1 4M4       0.125100
      2 C2          -0.9810     0.2060    -0.0770 ca         1 4M4       0.043100
      3 C1          -2.2260     2.2320    -0.0590 c3         1 4M4       0.134700
      4 C5           1.3740    -1.2690    -0.0610 ca         1 4M4      -0.109000
      5 C4           0.1490    -1.9170    -0.0960 ca         1 4M4      -0.145000
      6 C6           1.4440     0.1210    -0.0320 ca         1 4M4      -0.059800
      7 O1          -2.1850     0.8200    -0.0890 os         1 4M4      -0.345900
      8 C7           0.2460     0.8460    -0.0410 ca         1 4M4      -0.160000
      9 O8          -2.2090    -1.8550    -0.1400 oh         1 4M4      -0.494100
     10 C9           2.7080     0.8630     0.0070 ce         1 4M4      -0.106200
     11 C10          3.9400     0.3540     0.0290 c2         1 4M4      -0.209000
     12 H1          -1.7640     2.6320     0.8470 h1         1 4M4       0.041367
     13 H2          -1.7320     2.6700    -0.9300 h1         1 4M4       0.041367
     14 H3          -3.2760     2.5120    -0.0720 h1         1 4M4       0.041367
     15 H4           2.2760    -1.8680    -0.0560 ha         1 4M4       0.135000
     16 H5           0.1060    -2.9990    -0.1180 ha         1 4M4       0.148000
     17 H6           0.2960     1.9280    -0.0190 ha         1 4M4       0.133000
     18 H7          -2.9430    -1.2290    -0.1370 ho         1 4M4       0.442000
     19 H8           2.6020     1.9440     0.0190 ha         1 4M4       0.116000
     20 H9           4.8030     1.0040     0.0570 ha         1 4M4       0.113500
     21 H10          4.1390    -0.7100     0.0200 ha         1 4M4       0.113500
@<TRIPOS>BOND
     1     1     2 ar  
     2     1     5 ar  
     3     1     9 1   
     4     2     7 1   
     5     2     8 ar  
     6     3     7 1   
     7     3    12 1   
     8     3    13 1   
     9     3    14 1   
    10     4     5 ar  
    11     4     6 ar  
    12     4    15 1   
    13     5    16 1   
    14     6     8 ar  
    15     6    10 1   
    16     8    17 1   
    17     9    18 1   
    18    10    11 2   
    19    10    19 1   
    20    11    20 1   
    21    11    21 1   
@<TRIPOS>SUBSTRUCTURE
     1 4M4         1 TEMP              0 ****  ****    0 ROOT
