@<TRIPOS>MOLECULE
4M4
   21    21     1     0     0
SMALL
No Charge or Current Charge


@<TRIPOS>ATOM
      1 C3          -1.0260    -1.2370    -0.1090 ca         1 4M4       0.125100
      2 C2          -1.0020     0.1710    -0.0770 ca         1 4M4       0.043100
      3 C1          -2.2950     2.2820    -0.0300 c3         1 4M4       0.157900
      4 C5           1.4060    -1.2910    -0.1120 ca         1 4M4      -0.091000
      5 C4           0.1720    -1.9650    -0.1270 ca         1 4M4      -0.127000
      6 C6           1.4500     0.1190    -0.0770 ca         1 4M4      -0.059800
      7 O1          -2.2140     0.8440    -0.0620 os         1 4M4      -0.369100
      8 C7           0.2410     0.8450    -0.0630 ca         1 4M4      -0.142000
      9 O8          -2.2230    -1.8930    -0.1230 oh         1 4M4      -0.533100
     10 C9           2.7410     0.8710    -0.0630 ce         1 4M4      -0.156200
     11 C10          3.9720     0.3400     0.1120 c2         1 4M4      -0.309000
     12 H1          -1.8120     2.6800     0.8710 h1         1 4M4       0.041367
     13 H2          -1.8120     2.7200    -0.9130 h1         1 4M4       0.041367
     14 H3          -3.3440     2.6030    -0.0230 h1         1 4M4       0.041367
     15 H4           2.3190    -1.8780    -0.1360 ha         1 4M4       0.117000
     16 H5           0.1460    -3.0510    -0.1550 ha         1 4M4       0.130000
     17 H6           0.2830     1.9300    -0.0380 ha         1 4M4       0.115000
     18 H7          -2.9190    -1.1980    -0.1070 ho         1 4M4       0.481000
     19 H8           2.6420     1.9500    -0.2010 ha         1 4M4       0.166000
     20 H9           4.8620     0.9710     0.1120 ha         1 4M4       0.163500
     21 H10          4.1450    -0.7240     0.2680 ha         1 4M4       0.163500
@<TRIPOS>BOND
     1     1     2 ar  
     2     1     5 ar  
     3     1     9 1   
     4     2     7 1   
     5     2     8 ar  
     6     3     7 1   
     7     3    12 1   
     8     3    13 1   
     9     3    14 1   
    10     4     5 ar  
    11     4     6 ar  
    12     4    15 1   
    13     5    16 1   
    14     6     8 ar  
    15     6    10 1   
    16     8    17 1   
    17     9    18 1   
    18    10    11 2   
    19    10    19 1   
    20    11    20 1   
    21    11    21 1   
@<TRIPOS>SUBSTRUCTURE
     1 4M4         1 TEMP              0 ****  ****    0 ROOT
