@<TRIPOS>MOLECULE
4M5
   56    55     1     0     0
SMALL
abcg2


@<TRIPOS>ATOM
      1 O23          6.6010    -1.3750    -1.0300 o          1 4M5      -0.515100
      2 C17          6.5820    -0.8910     0.0790 c          1 4M5       0.570100
      3 C18          7.7920    -0.2160     0.6880 c3         1 4M5      -0.150200
      4 C19          8.9280    -0.0270    -0.2630 c2         1 4M5      -0.203200
      5 C20          9.4720     1.1320    -0.6290 c2         1 4M5      -0.211200
      6 C21          9.0930     2.5110    -0.1890 c3         1 4M5      -0.045200
      7 C22         10.2430     3.2100     0.5350 c3         1 4M5      -0.086100
      8 C16          5.3550    -0.9170     0.9540 c3         1 4M5      -0.179400
      9 C15          4.2160    -1.7910     0.4390 c3         1 4M5      -0.029200
     10 C14          3.0750    -1.7930     1.4070 c2         1 4M5      -0.240200
     11 C13          1.8380    -1.3420     1.2040 c2         1 4M5      -0.193200
     12 C12          1.2700    -0.7580    -0.0580 c3         1 4M5      -0.011000
     13 C11          0.1910    -1.6510    -0.5990 c2         1 4M5      -0.238200
     14 C10         -1.1210    -1.4210    -0.6210 c2         1 4M5      -0.192200
     15 C9          -1.8440    -0.1900    -0.1560 c3         1 4M5      -0.008000
     16 C8          -2.6250     0.4240    -1.2820 c2         1 4M5      -0.254200
     17 C7          -3.9490     0.5390    -1.3790 c2         1 4M5      -0.179200
     18 C6          -4.9820     0.1310    -0.3690 c3         1 4M5      -0.007000
     19 C5          -5.6680     1.3430     0.1950 c2         1 4M5      -0.275200
     20 C4          -6.9500     1.6820     0.0680 c2         1 4M5      -0.170200
     21 C3          -8.0460     0.9270    -0.6160 c3         1 4M5      -0.037200
     22 C2          -9.1500     0.5460     0.3650 c3         1 4M5      -0.202400
     23 C1         -10.3550    -0.1980    -0.2390 c          1 4M5       0.717000
     24 O25        -11.2080    -0.6030     0.5790 o          1 4M5      -0.741000
     25 O24        -10.3960    -0.3330    -1.4780 o          1 4M5      -0.741000
     26 H1           7.4690     0.7200     1.1500 hc         1 4M5       0.063700
     27 H2           8.1040    -0.8500     1.5280 hc         1 4M5       0.063700
     28 H3           9.3490    -0.9360    -0.6790 ha         1 4M5       0.179000
     29 H4          10.3070     1.0910    -1.3230 ha         1 4M5       0.167000
     30 H5           8.8200     3.0990    -1.0700 hc         1 4M5       0.044700
     31 H6           8.2120     2.4980     0.4540 hc         1 4M5       0.044700
     32 H7           9.9690     4.2270     0.8160 hc         1 4M5       0.032033
     33 H8          10.5170     2.6740     1.4440 hc         1 4M5       0.032033
     34 H9          11.1320     3.2680    -0.0960 hc         1 4M5       0.032033
     35 H10          5.6570    -1.2230     1.9610 hc         1 4M5       0.060200
     36 H11          5.0160     0.1200     1.0660 hc         1 4M5       0.060200
     37 H12          3.8980    -1.4510    -0.5470 hc         1 4M5       0.057200
     38 H13          4.5810    -2.8150     0.3120 hc         1 4M5       0.057200
     39 H14          3.3070    -2.1930     2.3910 ha         1 4M5       0.161000
     40 H15          1.1320    -1.4140     2.0260 ha         1 4M5       0.170000
     41 H16          0.8800     0.2400     0.1550 hc         1 4M5       0.050200
     42 H17          2.0490    -0.6330    -0.8140 hc         1 4M5       0.050200
     43 H18          0.5400    -2.6070    -0.9780 ha         1 4M5       0.165000
     44 H19         -1.7600    -2.1970    -1.0320 ha         1 4M5       0.173000
     45 H20         -2.5070    -0.4560     0.6710 hc         1 4M5       0.048700
     46 H21         -1.1420     0.5460     0.2410 hc         1 4M5       0.048700
     47 H22         -2.0250     0.7910    -2.1100 ha         1 4M5       0.158000
     48 H23         -4.3490     1.0070    -2.2740 ha         1 4M5       0.169000
     49 H24         -5.7050    -0.5340    -0.8470 hc         1 4M5       0.052700
     50 H25         -4.5260    -0.4390     0.4440 hc         1 4M5       0.052700
     51 H26         -5.0160     2.0170     0.7450 ha         1 4M5       0.145000
     52 H27         -7.2620     2.6120     0.5390 ha         1 4M5       0.150000
     53 H28         -8.4720     1.5540    -1.4050 hc         1 4M5       0.050200
     54 H29         -7.6650     0.0330    -1.1110 hc         1 4M5       0.050200
     55 H30         -8.7300    -0.0660     1.1710 hc         1 4M5       0.017700
     56 H31         -9.5250     1.4490     0.8610 hc         1 4M5       0.017700
@<TRIPOS>BOND
     1     1     2 2   
     2     2     3 1   
     3     2     8 1   
     4     3     4 1   
     5     3    26 1   
     6     3    27 1   
     7     4     5 2   
     8     4    28 1   
     9     5     6 1   
    10     5    29 1   
    11     6     7 1   
    12     6    30 1   
    13     6    31 1   
    14     7    32 1   
    15     7    33 1   
    16     7    34 1   
    17     8     9 1   
    18     8    35 1   
    19     8    36 1   
    20     9    10 1   
    21     9    37 1   
    22     9    38 1   
    23    10    11 2   
    24    10    39 1   
    25    11    12 1   
    26    11    40 1   
    27    12    13 1   
    28    12    41 1   
    29    12    42 1   
    30    13    14 2   
    31    13    43 1   
    32    14    15 1   
    33    14    44 1   
    34    15    16 1   
    35    15    45 1   
    36    15    46 1   
    37    16    17 2   
    38    16    47 1   
    39    17    18 1   
    40    17    48 1   
    41    18    19 1   
    42    18    49 1   
    43    18    50 1   
    44    19    20 2   
    45    19    51 1   
    46    20    21 1   
    47    20    52 1   
    48    21    22 1   
    49    21    53 1   
    50    21    54 1   
    51    22    23 1   
    52    22    55 1   
    53    22    56 1   
    54    23    24 1   
    55    23    25 1   
@<TRIPOS>SUBSTRUCTURE
     1 4M5         1 TEMP              0 ****  ****    0 ROOT
