@<TRIPOS>MOLECULE
4M5
   56    55     1     0     0
SMALL
No Charge or Current Charge


@<TRIPOS>ATOM
      1 O23          5.2950     0.1890    -2.2140 o          1 4M5      -0.515100
      2 C17          5.7610     0.1280    -1.0830 c          1 4M5       0.570100
      3 C18          7.2790     0.0970    -0.8390 c3         1 4M5      -0.150200
      4 C19          7.9210     1.4630    -1.0420 c2         1 4M5      -0.203200
      5 C20          8.4190     2.2770    -0.0930 c2         1 4M5      -0.211200
      6 C21          8.4300     2.0440     1.4060 c3         1 4M5      -0.045200
      7 C22          9.7400     1.3890     1.8810 c3         1 4M5      -0.086100
      8 C16          4.8540     0.0800     0.1540 c3         1 4M5      -0.179400
      9 C15          4.4290    -1.3680     0.4790 c3         1 4M5      -0.029200
     10 C14          3.5400    -1.4340     1.7060 c2         1 4M5      -0.240200
     11 C13          2.2000    -1.3190     1.7470 c2         1 4M5      -0.193200
     12 C12          1.2590    -1.0630     0.5840 c3         1 4M5      -0.011000
     13 C11          0.2390    -2.1790     0.4610 c2         1 4M5      -0.238200
     14 C10         -1.0340    -2.0710     0.0380 c2         1 4M5      -0.192200
     15 C9          -1.7370    -0.8130    -0.4340 c3         1 4M5      -0.008000
     16 C8          -2.6630    -1.1140    -1.5990 c2         1 4M5      -0.254200
     17 C7          -3.8830    -0.5940    -1.8220 c2         1 4M5      -0.179200
     18 C6          -4.6100     0.4290    -0.9710 c3         1 4M5      -0.007000
     19 C5          -5.4960     1.3130    -1.8310 c2         1 4M5      -0.275200
     20 C4          -6.8290     1.4720    -1.7470 c2         1 4M5      -0.170200
     21 C3          -7.7820     0.7750    -0.7930 c3         1 4M5      -0.037200
     22 C2          -8.0130     1.5870     0.5020 c3         1 4M5      -0.202400
     23 C1          -8.9990     0.8470     1.4240 c          1 4M5       0.717000
     24 O25         -8.5490     0.0400     2.2220 o          1 4M5      -0.741000
     25 O24        -10.1930     1.0650     1.2830 o          1 4M5      -0.741000
     26 H1           7.4740    -0.2670     0.1750 hc         1 4M5       0.063700
     27 H2           7.7250    -0.6080    -1.5510 hc         1 4M5       0.063700
     28 H3           7.9740     1.7710    -2.0900 ha         1 4M5       0.179000
     29 H4           8.8620     3.2310    -0.3880 ha         1 4M5       0.167000
     30 H5           8.2960     2.9980     1.9300 hc         1 4M5       0.044700
     31 H6           7.5880     1.4130     1.7140 hc         1 4M5       0.044700
     32 H7           9.7210     1.2390     2.9670 hc         1 4M5       0.032033
     33 H8           9.8800     0.4130     1.4010 hc         1 4M5       0.032033
     34 H9          10.6000     2.0230     1.6350 hc         1 4M5       0.032033
     35 H10          5.3980     0.4620     1.0240 hc         1 4M5       0.060200
     36 H11          3.9550     0.6810    -0.0300 hc         1 4M5       0.060200
     37 H12          3.9210    -1.8000    -0.3920 hc         1 4M5       0.057200
     38 H13          5.3240    -1.9840     0.6380 hc         1 4M5       0.057200
     39 H14          4.0890    -1.6070     2.6340 ha         1 4M5       0.161000
     40 H15          1.6860    -1.3930     2.7080 ha         1 4M5       0.170000
     41 H16          0.7610    -0.0990     0.7380 hc         1 4M5       0.050200
     42 H17          1.8090    -0.9680    -0.3590 hc         1 4M5       0.050200
     43 H18          0.6190    -3.1570     0.7640 ha         1 4M5       0.165000
     44 H19         -1.6650    -2.9620     0.0110 ha         1 4M5       0.173000
     45 H20         -2.2950    -0.3810     0.4050 hc         1 4M5       0.048700
     46 H21         -1.0090    -0.0540    -0.7440 hc         1 4M5       0.048700
     47 H22         -2.2550    -1.8380    -2.3080 ha         1 4M5       0.158000
     48 H23         -4.4470    -0.9100    -2.7030 ha         1 4M5       0.169000
     49 H24         -5.1900    -0.0870    -0.1980 hc         1 4M5       0.052700
     50 H25         -3.8940     1.0610    -0.4330 hc         1 4M5       0.052700
     51 H26         -4.9400     1.8830    -2.5780 ha         1 4M5       0.145000
     52 H27         -7.3290     2.1600    -2.4320 ha         1 4M5       0.150000
     53 H28         -8.7450     0.6110    -1.2930 hc         1 4M5       0.050200
     54 H29         -7.4120    -0.2240    -0.5310 hc         1 4M5       0.050200
     55 H30         -7.0290     1.6730     0.9810 hc         1 4M5       0.017700
     56 H31         -8.4330     2.5480     0.1810 hc         1 4M5       0.017700
@<TRIPOS>BOND
     1     1     2 2   
     2     2     3 1   
     3     2     8 1   
     4     3     4 1   
     5     3    26 1   
     6     3    27 1   
     7     4     5 2   
     8     4    28 1   
     9     5     6 1   
    10     5    29 1   
    11     6     7 1   
    12     6    30 1   
    13     6    31 1   
    14     7    32 1   
    15     7    33 1   
    16     7    34 1   
    17     8     9 1   
    18     8    35 1   
    19     8    36 1   
    20     9    10 1   
    21     9    37 1   
    22     9    38 1   
    23    10    11 2   
    24    10    39 1   
    25    11    12 1   
    26    11    40 1   
    27    12    13 1   
    28    12    41 1   
    29    12    42 1   
    30    13    14 2   
    31    13    43 1   
    32    14    15 1   
    33    14    44 1   
    34    15    16 1   
    35    15    45 1   
    36    15    46 1   
    37    16    17 2   
    38    16    47 1   
    39    17    18 1   
    40    17    48 1   
    41    18    19 1   
    42    18    49 1   
    43    18    50 1   
    44    19    20 2   
    45    19    51 1   
    46    20    21 1   
    47    20    52 1   
    48    21    22 1   
    49    21    53 1   
    50    21    54 1   
    51    22    23 1   
    52    22    55 1   
    53    22    56 1   
    54    23    24 1   
    55    23    25 1   
@<TRIPOS>SUBSTRUCTURE
     1 4M5         1 TEMP              0 ****  ****    0 ROOT
