@<TRIPOS>MOLECULE
4M6
   51    55     1     0     0
SMALL
No Charge or Current Charge


@<TRIPOS>ATOM
      1 OAA         -3.2880    -3.4790     0.7590 o          1 4M6      -0.710500
      2 CAT         -2.5590    -2.7390     0.1150 c          1 4M6       0.724200
      3 OAB         -1.5070    -3.1420    -0.3610 o          1 4M6      -0.710500
      4 CAX         -2.9760    -1.3050    -0.0700 cc         1 4M6      -0.062300
      5 NBC         -4.1350    -0.6450     0.4130 na         1 4M6      -0.061700
      6 CBB         -4.1200     0.6840     0.0700 ca         1 4M6      -0.074200
      7 CAR         -5.2480    -1.1670     1.2490 c6         1 4M6       0.093600
      8 CAN         -6.5450    -0.3160     1.0740 c6         1 4M6      -0.099400
      9 CAP         -6.2890     1.2130     1.2190 c6         1 4M6      -0.017100
     10 CAU         -5.0780     1.6450     0.3930 ca         1 4M6      -0.096300
     11 CAG         -4.8570     2.9640    -0.0580 ca         1 4M6      -0.121000
     12 CAE         -3.6960     3.2680    -0.8150 ca         1 4M6      -0.161000
     13 CAL         -2.7510     2.2600    -1.1230 ca         1 4M6      -0.074000
     14 CBA         -3.0070     0.9630    -0.6530 ca         1 4M6      -0.087800
     15 CAW         -2.2760    -0.2870    -0.7590 cd         1 4M6      -0.170400
     16 CAQ         -0.9610    -0.3970    -1.5020 c3         1 4M6       0.026800
     17 CAM          0.2520    -0.1700    -0.5770 c3         1 4M6      -0.080400
     18 CAO          1.5980    -0.2640    -1.3190 c3         1 4M6       0.161600
     19 OAS          2.6400    -0.0180    -0.3610 os         1 4M6      -0.342100
     20 CAV          3.9810    -0.0260    -0.7020 ca         1 4M6       0.187100
     21 CAZ          4.9450     0.2290     0.3030 ca         1 4M6      -0.065000
     22 CAK          4.5580     0.4890     1.6380 ca         1 4M6      -0.056000
     23 CAD          5.5290     0.7400     2.6230 ca         1 4M6      -0.140000
     24 CAC          6.8920     0.7350     2.2880 ca         1 4M6      -0.099000
     25 CAI          7.2870     0.4790     0.9650 ca         1 4M6      -0.123000
     26 CAY          6.3210     0.2260    -0.0270 ca         1 4M6      -0.003000
     27 CAJ          6.7270    -0.0290    -1.3480 ca         1 4M6      -0.163000
     28 CAF          5.7730    -0.2820    -2.3450 ca         1 4M6      -0.058000
     29 CAH          4.4060    -0.2810    -2.0260 ca         1 4M6      -0.233000
     30 H2          -5.4620    -2.2080     0.9760 h1         1 4M6       0.069700
     31 H3          -4.9310    -1.1490     2.3010 h1         1 4M6       0.069700
     32 H4          -6.9600    -0.5110     0.0750 hc         1 4M6       0.040200
     33 H5          -7.3080    -0.6410     1.7930 hc         1 4M6       0.040200
     34 H6          -7.1830     1.7730     0.9090 hc         1 4M6       0.036700
     35 H7          -6.1120     1.4590     2.2750 hc         1 4M6       0.036700
     36 H8          -5.5750     3.7470     0.1740 ha         1 4M6       0.087000
     37 H9          -3.5290     4.2850    -1.1600 ha         1 4M6       0.087000
     38 H10         -1.8570     2.4890    -1.6970 ha         1 4M6       0.098000
     39 H11         -0.8710    -1.3640    -2.0090 hc         1 4M6       0.039700
     40 H12         -0.9300     0.3480    -2.3060 hc         1 4M6       0.039700
     41 H13          0.1670     0.8190    -0.1100 hc         1 4M6       0.062700
     42 H14          0.2360    -0.9110     0.2310 hc         1 4M6       0.062700
     43 H15          1.7040    -1.2630    -1.7610 h1         1 4M6       0.032200
     44 H16          1.6260     0.4840    -2.1220 h1         1 4M6       0.032200
     45 H17          3.5070     0.4970     1.9190 ha         1 4M6       0.136000
     46 H18          5.2220     0.9390     3.6470 ha         1 4M6       0.109000
     47 H19          7.6420     0.9300     3.0520 ha         1 4M6       0.102000
     48 H20          8.3450     0.4770     0.7120 ha         1 4M6       0.104000
     49 H21          7.7840    -0.0330    -1.6060 ha         1 4M6       0.105000
     50 H22          6.0940    -0.4790    -3.3660 ha         1 4M6       0.102000
     51 H23          3.6920    -0.4800    -2.8200 ha         1 4M6       0.122000
@<TRIPOS>BOND
     1     1     2 1   
     2     2     3 1   
     3     2     4 1   
     4     4     5 1   
     5     4    15 2   
     6     5     6 1   
     7     5     7 1   
     8     6    10 ar  
     9     6    14 ar  
    10     7     8 1   
    11     7    30 1   
    12     7    31 1   
    13     8     9 1   
    14     8    32 1   
    15     8    33 1   
    16     9    10 1   
    17     9    34 1   
    18     9    35 1   
    19    10    11 ar  
    20    11    12 ar  
    21    11    36 1   
    22    12    13 ar  
    23    12    37 1   
    24    13    14 ar  
    25    13    38 1   
    26    14    15 1   
    27    15    16 1   
    28    16    17 1   
    29    16    39 1   
    30    16    40 1   
    31    17    18 1   
    32    17    41 1   
    33    17    42 1   
    34    18    19 1   
    35    18    43 1   
    36    18    44 1   
    37    19    20 1   
    38    20    21 ar  
    39    20    29 ar  
    40    21    22 ar  
    41    21    26 ar  
    42    22    23 ar  
    43    22    45 1   
    44    23    24 ar  
    45    23    46 1   
    46    24    25 ar  
    47    24    47 1   
    48    25    26 ar  
    49    25    48 1   
    50    26    27 ar  
    51    27    28 ar  
    52    27    49 1   
    53    28    29 ar  
    54    28    50 1   
    55    29    51 1   
@<TRIPOS>SUBSTRUCTURE
     1 4M6         1 TEMP              0 ****  ****    0 ROOT
