@<TRIPOS>MOLECULE
4M6
   51    55     1     0     0
SMALL
bcc


@<TRIPOS>ATOM
      1 OAA         -3.0040    -3.0820     1.2670 o          1 4M6      -0.815800
      2 CAT         -2.4660    -2.5370     0.2830 c          1 4M6       0.934800
      3 OAB         -1.5930    -3.0290    -0.4570 o          1 4M6      -0.815800
      4 CAX         -2.8900    -1.1250    -0.0310 cc         1 4M6      -0.062300
      5 NBC         -4.0550    -0.5680     0.4620 na         1 4M6      -0.032400
      6 CBB         -4.1160     0.7300     0.0670 ca         1 4M6      -0.074200
      7 CAR         -5.1420    -1.1500     1.2330 c6         1 4M6       0.064300
      8 CAN         -6.4320    -0.3730     0.9790 c6         1 4M6      -0.099400
      9 CAP         -6.2770     1.1350     1.1840 c6         1 4M6      -0.017100
     10 CAU         -5.1330     1.6390     0.3540 ca         1 4M6      -0.096300
     11 CAG         -4.9770     2.9100    -0.1640 ca         1 4M6      -0.139000
     12 CAE         -3.8420     3.2510    -0.9290 ca         1 4M6      -0.179000
     13 CAL         -2.8460     2.3330    -1.2010 ca         1 4M6      -0.092000
     14 CBA         -2.9790     1.0290    -0.6990 ca         1 4M6      -0.087800
     15 CAW         -2.2100    -0.1710    -0.7650 cd         1 4M6      -0.170400
     16 CAQ         -0.8860    -0.2890    -1.4510 c3         1 4M6       0.026800
     17 CAM          0.2910    -0.1740    -0.4820 c3         1 4M6      -0.080400
     18 CAO          1.6110    -0.2730    -1.2170 c3         1 4M6       0.138400
     19 OAS          2.6610    -0.1150    -0.2740 os         1 4M6      -0.318900
     20 CAV          3.9320    -0.0960    -0.7020 ca         1 4M6       0.187100
     21 CAZ          4.9100     0.1480     0.3110 ca         1 4M6      -0.065000
     22 CAK          4.5550     0.3560     1.6640 ca         1 4M6      -0.074000
     23 CAD          5.5170     0.5910     2.6100 ca         1 4M6      -0.158000
     24 CAC          6.8780     0.6310     2.2470 ca         1 4M6      -0.117000
     25 CAI          7.2470     0.4330     0.9450 ca         1 4M6      -0.141000
     26 CAY          6.2790     0.1880    -0.0570 ca         1 4M6      -0.003000
     27 CAJ          6.6490    -0.0150    -1.4090 ca         1 4M6      -0.181000
     28 CAF          5.6880    -0.2460    -2.3500 ca         1 4M6      -0.076000
     29 CAH          4.3200    -0.2890    -2.0060 ca         1 4M6      -0.251000
     30 H2          -5.2740    -2.1900     0.9480 h1         1 4M6       0.069700
     31 H3          -4.8930    -1.1350     2.2970 h1         1 4M6       0.069700
     32 H4          -6.7710    -0.5650    -0.0430 hc         1 4M6       0.040200
     33 H5          -7.2010    -0.7680     1.6450 hc         1 4M6       0.040200
     34 H6          -7.2040     1.6510     0.9260 hc         1 4M6       0.036700
     35 H7          -6.0900     1.3420     2.2430 hc         1 4M6       0.036700
     36 H8          -5.7370     3.6600     0.0180 ha         1 4M6       0.105000
     37 H9          -3.7570     4.2600    -1.3130 ha         1 4M6       0.105000
     38 H10         -1.9840     2.6200    -1.7920 ha         1 4M6       0.116000
     39 H11         -0.8200    -1.2360    -1.9860 hc         1 4M6       0.039700
     40 H12         -0.8060     0.5050    -2.2000 hc         1 4M6       0.039700
     41 H13          0.2390     0.7790     0.0510 hc         1 4M6       0.062700
     42 H14          0.2210    -0.9700     0.2620 hc         1 4M6       0.062700
     43 H15          1.6930    -1.2450    -1.7190 h1         1 4M6       0.032200
     44 H16          1.6800     0.5020    -1.9890 h1         1 4M6       0.032200
     45 H17          3.5140     0.3330     1.9580 ha         1 4M6       0.154000
     46 H18          5.2320     0.7500     3.6410 ha         1 4M6       0.127000
     47 H19          7.6300     0.8180     3.0030 ha         1 4M6       0.120000
     48 H20          8.2930     0.4630     0.6620 ha         1 4M6       0.122000
     49 H21          7.6970     0.0160    -1.6830 ha         1 4M6       0.123000
     50 H22          5.9650    -0.4020    -3.3840 ha         1 4M6       0.120000
     51 H23          3.5960    -0.4760    -2.7870 ha         1 4M6       0.140000
@<TRIPOS>BOND
     1     1     2 1   
     2     2     3 1   
     3     2     4 1   
     4     4     5 1   
     5     4    15 2   
     6     5     6 1   
     7     5     7 1   
     8     6    10 ar  
     9     6    14 ar  
    10     7     8 1   
    11     7    30 1   
    12     7    31 1   
    13     8     9 1   
    14     8    32 1   
    15     8    33 1   
    16     9    10 1   
    17     9    34 1   
    18     9    35 1   
    19    10    11 ar  
    20    11    12 ar  
    21    11    36 1   
    22    12    13 ar  
    23    12    37 1   
    24    13    14 ar  
    25    13    38 1   
    26    14    15 1   
    27    15    16 1   
    28    16    17 1   
    29    16    39 1   
    30    16    40 1   
    31    17    18 1   
    32    17    41 1   
    33    17    42 1   
    34    18    19 1   
    35    18    43 1   
    36    18    44 1   
    37    19    20 1   
    38    20    21 ar  
    39    20    29 ar  
    40    21    22 ar  
    41    21    26 ar  
    42    22    23 ar  
    43    22    45 1   
    44    23    24 ar  
    45    23    46 1   
    46    24    25 ar  
    47    24    47 1   
    48    25    26 ar  
    49    25    48 1   
    50    26    27 ar  
    51    27    28 ar  
    52    27    49 1   
    53    28    29 ar  
    54    28    50 1   
    55    29    51 1   
@<TRIPOS>SUBSTRUCTURE
     1 4M6         1 TEMP              0 ****  ****    0 ROOT
