@<TRIPOS>MOLECULE
4M7
   53    57     1     0     0
SMALL
No Charge or Current Charge


@<TRIPOS>ATOM
      1 OAA         -2.5670    -3.6770    -0.0630 o          1 4M7      -0.702000
      2 CAU         -1.7960    -2.8400     0.3850 c          1 4M7       0.722200
      3 OAC         -0.7000    -3.1610     0.8210 o          1 4M7      -0.702000
      4 CAY         -2.2340    -1.3970     0.4090 cc         1 4M7      -0.063300
      5 NBD         -3.4140    -0.8140    -0.1300 na         1 4M7      -0.053700
      6 CBC         -3.4770     0.5430     0.1890 ca         1 4M7       0.004800
      7 CAR         -4.2380    -1.3880    -1.2240 c3         1 4M7       0.064600
      8 CAO         -4.4980    -0.4230    -2.4060 c3         1 4M7      -0.071400
      9 CAS         -5.7790     0.4350    -2.2980 c3         1 4M7      -0.029100
     10 SBE         -6.1880     1.0590    -0.5900 sx         1 4M7       0.207200
     11 OAB         -6.7030    -0.0970     0.2500 o          1 4M7      -0.513000
     12 CAX         -4.5060     1.4930    -0.0020 ca         1 4M7      -0.074500
     13 CAI         -4.2550     2.8290     0.3770 ca         1 4M7      -0.058000
     14 CAG         -3.0170     3.1950     0.9500 ca         1 4M7      -0.179000
     15 CAM         -2.0270     2.2200     1.1800 ca         1 4M7      -0.040000
     16 CBB         -2.3040     0.8990     0.7940 ca         1 4M7      -0.100800
     17 CAW         -1.5260    -0.3090     0.9530 cd         1 4M7      -0.169400
     18 CAQ         -0.1820    -0.3250     1.6530 c3         1 4M7       0.027800
     19 CAN          0.9910    -0.1640     0.6640 c3         1 4M7      -0.080400
     20 CAP          2.3650    -0.1640     1.3570 c3         1 4M7       0.161600
     21 OAT          3.3650     0.0100     0.3400 os         1 4M7      -0.344100
     22 CAV          4.7180     0.0570     0.6270 ca         1 4M7       0.185100
     23 CBA          5.6370     0.2340    -0.4350 ca         1 4M7      -0.064000
     24 CAL          5.1940     0.3610    -1.7720 ca         1 4M7      -0.057000
     25 CAE          6.1210     0.5360    -2.8140 ca         1 4M7      -0.140000
     26 CAD          7.4960     0.5860    -2.5350 ca         1 4M7      -0.099000
     27 CAJ          7.9460     0.4610    -1.2100 ca         1 4M7      -0.122000
     28 CAZ          7.0240     0.2850    -0.1610 ca         1 4M7      -0.003000
     29 CAK          7.4860     0.1610     1.1610 ca         1 4M7      -0.162000
     30 CAF          6.5760    -0.0140     2.2130 ca         1 4M7      -0.058000
     31 CAH          5.1980    -0.0660     1.9510 ca         1 4M7      -0.231000
     32 H2          -3.6940    -2.2410    -1.6420 h1         1 4M7       0.094200
     33 H3          -5.1770    -1.7820    -0.8190 h1         1 4M7       0.094200
     34 H4          -3.6270     0.2290    -2.5440 hc         1 4M7       0.047200
     35 H5          -4.5740    -1.0130    -3.3270 hc         1 4M7       0.047200
     36 H6          -5.6890     1.3100    -2.9530 h1         1 4M7       0.063200
     37 H7          -6.6480    -0.1500    -2.6240 h1         1 4M7       0.063200
     38 H9          -5.0290     3.5820     0.2450 ha         1 4M7       0.087000
     39 H10         -2.8380     4.2270     1.2410 ha         1 4M7       0.093000
     40 H11         -1.0850     2.4890     1.6490 ha         1 4M7       0.102000
     41 H12         -0.1350     0.4900     2.3840 hc         1 4M7       0.038700
     42 H13         -0.0500    -1.2360     2.2460 hc         1 4M7       0.038700
     43 H14          0.9590    -0.9770    -0.0710 hc         1 4M7       0.063700
     44 H15          0.8670     0.7760     0.1110 hc         1 4M7       0.063700
     45 H16          2.4080     0.6550     2.0870 h1         1 4M7       0.033200
     46 H17          2.5090    -1.1160     1.8850 h1         1 4M7       0.033200
     47 H18          4.1340     0.3250    -2.0110 ha         1 4M7       0.134000
     48 H19          5.7720     0.6330    -3.8400 ha         1 4M7       0.108000
     49 H20          8.2120     0.7210    -3.3420 ha         1 4M7       0.102000
     50 H21          9.0130     0.5000    -1.0010 ha         1 4M7       0.104000
     51 H22          8.5520     0.2000     1.3750 ha         1 4M7       0.105000
     52 H23          6.9400    -0.1100     3.2350 ha         1 4M7       0.103000
     53 H24          4.5190    -0.2030     2.7870 ha         1 4M7       0.123000
@<TRIPOS>BOND
     1     1     2 1   
     2     2     3 1   
     3     2     4 1   
     4     4     5 1   
     5     4    17 2   
     6     5     6 1   
     7     5     7 1   
     8     6    12 ar  
     9     6    16 ar  
    10     7     8 1   
    11     7    32 1   
    12     7    33 1   
    13     8     9 1   
    14     8    34 1   
    15     8    35 1   
    16     9    10 1   
    17     9    36 1   
    18     9    37 1   
    19    10    11 2   
    20    10    12 1   
    21    12    13 ar  
    22    13    14 ar  
    23    13    38 1   
    24    14    15 ar  
    25    14    39 1   
    26    15    16 ar  
    27    15    40 1   
    28    16    17 1   
    29    17    18 1   
    30    18    19 1   
    31    18    41 1   
    32    18    42 1   
    33    19    20 1   
    34    19    43 1   
    35    19    44 1   
    36    20    21 1   
    37    20    45 1   
    38    20    46 1   
    39    21    22 1   
    40    22    23 ar  
    41    22    31 ar  
    42    23    24 ar  
    43    23    28 ar  
    44    24    25 ar  
    45    24    47 1   
    46    25    26 ar  
    47    25    48 1   
    48    26    27 ar  
    49    26    49 1   
    50    27    28 ar  
    51    27    50 1   
    52    28    29 ar  
    53    29    30 ar  
    54    29    51 1   
    55    30    31 ar  
    56    30    52 1   
    57    31    53 1   
@<TRIPOS>SUBSTRUCTURE
     1 4M7         1 TEMP              0 ****  ****    0 ROOT
