@<TRIPOS>MOLECULE
4M7
   53    57     1     0     0
SMALL
abcg2


@<TRIPOS>ATOM
      1 OAA         -2.7880    -3.5370     0.4450 o          1 4M7      -0.702000
      2 CAU         -1.8410    -2.7310     0.3710 c          1 4M7       0.722200
      3 OAC         -0.6260    -2.9980     0.3320 o          1 4M7      -0.702000
      4 CAY         -2.1910    -1.2610     0.3750 cc         1 4M7      -0.063300
      5 NBD         -3.3980    -0.7660    -0.1030 na         1 4M7      -0.053700
      6 CBC         -3.4410     0.5730     0.1370 ca         1 4M7       0.004800
      7 CAR         -4.2880    -1.4660    -1.0230 c3         1 4M7       0.064600
      8 CAO         -4.5660    -0.6500    -2.2830 c3         1 4M7      -0.071400
      9 CAS         -5.7530     0.3030    -2.2320 c3         1 4M7      -0.029100
     10 SBE         -6.0720     1.1610    -0.6660 sx         1 4M7       0.207200
     11 OAB         -6.6200     0.1340     0.3010 o          1 4M7      -0.513000
     12 CAX         -4.4170     1.5390    -0.1450 ca         1 4M7      -0.074500
     13 CAI         -4.1690     2.8560     0.2070 ca         1 4M7      -0.058000
     14 CAG         -2.9660     3.2310     0.8170 ca         1 4M7      -0.179000
     15 CAM         -2.0090     2.2810     1.1160 ca         1 4M7      -0.040000
     16 CBB         -2.2350     0.9460     0.7730 ca         1 4M7      -0.100800
     17 CAW         -1.4560    -0.2390     0.9210 cd         1 4M7      -0.169400
     18 CAQ         -0.1060    -0.2980     1.5580 c3         1 4M7       0.027800
     19 CAN          1.0280    -0.1170     0.5490 c3         1 4M7      -0.080400
     20 CAP          2.3770    -0.2180     1.2280 c3         1 4M7       0.161600
     21 OAT          3.3850    -0.0000     0.2520 os         1 4M7      -0.344100
     22 CAV          4.6740    -0.0160     0.6260 ca         1 4M7       0.185100
     23 CBA          5.6130     0.2640    -0.4130 ca         1 4M7      -0.064000
     24 CAL          5.2060     0.5420    -1.7390 ca         1 4M7      -0.057000
     25 CAE          6.1330     0.8080    -2.7120 ca         1 4M7      -0.140000
     26 CAD          7.5080     0.8090    -2.4060 ca         1 4M7      -0.099000
     27 CAJ          7.9260     0.5450    -1.1300 ca         1 4M7      -0.122000
     28 CAZ          6.9970     0.2670    -0.1010 ca         1 4M7      -0.003000
     29 CAK          7.4190    -0.0060     1.2230 ca         1 4M7      -0.162000
     30 CAF          6.4930    -0.2680     2.1910 ca         1 4M7      -0.058000
     31 CAH          5.1120    -0.2750     1.9030 ca         1 4M7      -0.231000
     32 H2          -3.7950    -2.3890    -1.3020 h1         1 4M7       0.094200
     33 H3          -5.2130    -1.7410    -0.5160 h1         1 4M7       0.094200
     34 H4          -3.6620    -0.1040    -2.5620 hc         1 4M7       0.047200
     35 H5          -4.7560    -1.3440    -3.1030 hc         1 4M7       0.047200
     36 H6          -5.6530     1.0860    -2.9860 h1         1 4M7       0.063200
     37 H7          -6.6940    -0.2150    -2.4270 h1         1 4M7       0.063200
     38 H9          -4.9290     3.6050     0.0220 ha         1 4M7       0.087000
     39 H10         -2.8020     4.2690     1.0730 ha         1 4M7       0.093000
     40 H11         -1.0890     2.5730     1.6080 ha         1 4M7       0.102000
     41 H12         -0.0340     0.4810     2.3250 hc         1 4M7       0.038700
     42 H13          0.0240    -1.2500     2.0730 hc         1 4M7       0.038700
     43 H14          0.9380    -0.8910    -0.2160 hc         1 4M7       0.063700
     44 H15          0.9370     0.8540     0.0540 hc         1 4M7       0.063700
     45 H16          2.4650     0.5260     2.0290 h1         1 4M7       0.033200
     46 H17          2.4970    -1.2080     1.6830 h1         1 4M7       0.033200
     47 H18          4.1540     0.5480    -1.9910 ha         1 4M7       0.134000
     48 H19          5.8090     1.0200    -3.7220 ha         1 4M7       0.108000
     49 H20          8.2310     1.0200    -3.1820 ha         1 4M7       0.102000
     50 H21          8.9830     0.5470    -0.8900 ha         1 4M7       0.104000
     51 H22          8.4770    -0.0050     1.4520 ha         1 4M7       0.105000
     52 H23          6.8100    -0.4770     3.2040 ha         1 4M7       0.103000
     53 H24          4.4180    -0.4860     2.7040 ha         1 4M7       0.123000
@<TRIPOS>BOND
     1     1     2 1   
     2     2     3 1   
     3     2     4 1   
     4     4     5 1   
     5     4    17 2   
     6     5     6 1   
     7     5     7 1   
     8     6    12 ar  
     9     6    16 ar  
    10     7     8 1   
    11     7    32 1   
    12     7    33 1   
    13     8     9 1   
    14     8    34 1   
    15     8    35 1   
    16     9    10 1   
    17     9    36 1   
    18     9    37 1   
    19    10    11 2   
    20    10    12 1   
    21    12    13 ar  
    22    13    14 ar  
    23    13    38 1   
    24    14    15 ar  
    25    14    39 1   
    26    15    16 ar  
    27    15    40 1   
    28    16    17 1   
    29    17    18 1   
    30    18    19 1   
    31    18    41 1   
    32    18    42 1   
    33    19    20 1   
    34    19    43 1   
    35    19    44 1   
    36    20    21 1   
    37    20    45 1   
    38    20    46 1   
    39    21    22 1   
    40    22    23 ar  
    41    22    31 ar  
    42    23    24 ar  
    43    23    28 ar  
    44    24    25 ar  
    45    24    47 1   
    46    25    26 ar  
    47    25    48 1   
    48    26    27 ar  
    49    26    49 1   
    50    27    28 ar  
    51    27    50 1   
    52    28    29 ar  
    53    29    30 ar  
    54    29    51 1   
    55    30    31 ar  
    56    30    52 1   
    57    31    53 1   
@<TRIPOS>SUBSTRUCTURE
     1 4M7         1 TEMP              0 ****  ****    0 ROOT
