@<TRIPOS>MOLECULE
4M8
   22    21     1     0     0
SMALL
No Charge or Current Charge


@<TRIPOS>ATOM
      1 OAG        -21.1450   -27.5750   -10.5320 o          1 4M8      -0.833500
      2 P          -22.4240   -28.1990   -10.9880 p5         1 4M8       1.401400
      3 OAI        -22.2640   -29.7840   -11.2510 os         1 4M8      -0.599400
      4 CAJ        -21.7640   -30.6350   -10.2170 c3         1 4M8       0.224900
      5 CG         -23.6650   -28.2160    -9.6280 c3         1 4M8      -0.441400
      6 CB         -24.2290   -26.8140    -9.2700 c3         1 4M8      -0.017400
      7 CA         -25.2270   -26.7960    -8.0750 c3         1 4M8       0.015500
      8 N          -26.4830   -27.5730    -8.3930 n8         1 4M8      -0.984200
      9 C          -25.4450   -25.3070    -7.5720 c          1 4M8       0.692000
     10 O          -26.1390   -24.5560    -8.2470 o          1 4M8      -0.755000
     11 OXT        -25.0080   -24.9940    -6.4730 o          1 4M8      -0.755000
     12 H2         -21.3290   -31.5430   -10.6550 h1         1 4M8      -0.008967
     13 H3         -20.9850   -30.1350    -9.6280 h1         1 4M8      -0.008967
     14 H4         -22.5740   -30.9380    -9.5430 h1         1 4M8      -0.008967
     15 H5         -24.4740   -28.8840    -9.9400 hc         1 4M8       0.035700
     16 H6         -23.1860   -28.6550    -8.7460 hc         1 4M8       0.035700
     17 H7         -23.3850   -26.1570    -9.0210 hc         1 4M8       0.043200
     18 H8         -24.7120   -26.3730   -10.1520 hc         1 4M8       0.043200
     19 H9         -24.7400   -27.3270    -7.2450 h1         1 4M8       0.025700
     20 H10        -27.0960   -27.5650    -7.5690 hn         1 4M8       0.365000
     21 H11        -27.0170   -27.0450    -9.0920 hn         1 4M8       0.365000
     22 O1         -22.9950   -27.5160   -12.1890 o          1 4M8      -0.833500
@<TRIPOS>BOND
     1     1     2 1   
     2     2     3 1   
     3     2     5 1   
     4     2    22 1   
     5     3     4 1   
     6     4    12 1   
     7     4    13 1   
     8     4    14 1   
     9     5     6 1   
    10     5    15 1   
    11     5    16 1   
    12     6     7 1   
    13     6    17 1   
    14     6    18 1   
    15     7     8 1   
    16     7     9 1   
    17     7    19 1   
    18     8    20 1   
    19     8    21 1   
    20     9    10 1   
    21     9    11 1   
@<TRIPOS>SUBSTRUCTURE
     1 4M8         1 TEMP              0 ****  ****    0 ROOT
