@<TRIPOS>MOLECULE
4M8
   22    21     1     0     0
SMALL
abcg2


@<TRIPOS>ATOM
      1 OAG        -21.2620   -27.6390   -10.3300 o          1 4M8      -0.833500
      2 P          -22.5400   -28.2220   -10.8770 p5         1 4M8       1.401400
      3 OAI        -22.3190   -29.8400   -11.1740 os         1 4M8      -0.599400
      4 CAJ        -21.5390   -30.6110   -10.2900 c3         1 4M8       0.224900
      5 CG         -23.8080   -28.2480    -9.5610 c3         1 4M8      -0.441400
      6 CB         -24.2010   -26.8390    -9.1280 c3         1 4M8      -0.017400
      7 CA         -25.3130   -26.7960    -8.0730 c3         1 4M8       0.015500
      8 N          -26.5200   -27.4180    -8.5990 n8         1 4M8      -0.984200
      9 C          -25.4880   -25.3300    -7.5980 c          1 4M8       0.692000
     10 O          -26.4430   -24.6890    -8.0820 o          1 4M8      -0.755000
     11 OXT        -24.6330   -24.9040    -6.7940 o          1 4M8      -0.755000
     12 H2         -21.5470   -31.6440   -10.6430 h1         1 4M8      -0.008967
     13 H3         -20.5000   -30.2750   -10.2480 h1         1 4M8      -0.008967
     14 H4         -21.9320   -30.6090    -9.2670 h1         1 4M8      -0.008967
     15 H5         -24.6900   -28.7830    -9.9170 hc         1 4M8       0.035700
     16 H6         -23.4370   -28.8030    -8.6930 hc         1 4M8       0.035700
     17 H7         -23.3240   -26.3220    -8.7350 hc         1 4M8       0.043200
     18 H8         -24.5260   -26.2650   -10.0040 hc         1 4M8       0.043200
     19 H9         -24.9770   -27.3920    -7.2170 h1         1 4M8       0.025700
     20 H10        -27.1820   -27.5380    -7.8410 hn         1 4M8       0.365000
     21 H11        -26.9620   -26.7420    -9.2130 hn         1 4M8       0.365000
     22 O1         -23.1440   -27.6770   -12.1430 o          1 4M8      -0.833500
@<TRIPOS>BOND
     1     1     2 1   
     2     2     3 1   
     3     2     5 1   
     4     2    22 1   
     5     3     4 1   
     6     4    12 1   
     7     4    13 1   
     8     4    14 1   
     9     5     6 1   
    10     5    15 1   
    11     5    16 1   
    12     6     7 1   
    13     6    17 1   
    14     6    18 1   
    15     7     8 1   
    16     7     9 1   
    17     7    19 1   
    18     8    20 1   
    19     8    21 1   
    20     9    10 1   
    21     9    11 1   
@<TRIPOS>SUBSTRUCTURE
     1 4M8         1 TEMP              0 ****  ****    0 ROOT
