@<TRIPOS>MOLECULE
4M9
   43    45     1     0     0
SMALL
No Charge or Current Charge


@<TRIPOS>ATOM
      1 O2           0.2350    -3.7390    -0.2180 o          1 4M9      -0.522000
      2 C2          -0.2570    -2.6200    -0.2820 c          1 4M9       0.544200
      3 N3          -1.5810    -2.2840    -0.4630 n          1 4M9      -0.340300
      4 CA3         -2.6590    -3.3040    -0.6090 c3         1 4M9      -0.005000
      5 C           -3.6110    -3.4230     0.5940 c          1 4M9       0.597900
      6 O           -3.3060    -3.1100     1.7430 o          1 4M9      -0.526100
      7 CA2          0.3720    -1.3000    -0.1900 cc         1 4M9      -0.088600
      8 N2          -0.5530    -0.2830    -0.3150 nc         1 4M9      -0.584300
      9 C1          -1.7370    -0.8980    -0.4830 cd         1 4M9       0.375600
     10 CA1         -2.9910    -0.0780    -0.6460 cf         1 4M9       0.415000
     11 N           -4.1670    -0.6250    -0.7740 n2         1 4M9      -0.764100
     12 CB1         -2.9170     1.4470    -0.7170 c3         1 4M9      -0.156700
     13 CG1         -3.3490     2.1570     0.5970 c3         1 4M9      -0.169400
     14 CB2          1.7170    -1.1110    -0.0030 cf         1 4M9       0.051000
     15 CG2          2.5010     0.1300     0.0970 cd         1 4M9      -0.174200
     16 CD1          1.9900     1.4230     0.1840 cc         1 4M9      -0.062100
     17 NE1          3.1210     2.2610     0.2740 na         1 4M9      -0.205700
     18 CE2          4.2770     1.5030     0.2460 ca         1 4M9      -0.066200
     19 CD2          3.9470     0.1800     0.1370 ca         1 4M9      -0.066800
     20 CZ2          5.6110     1.9270     0.3110 ca         1 4M9      -0.114000
     21 CH2          6.6200     0.9410     0.2600 ca         1 4M9      -0.097000
     22 CZ3          6.2780    -0.4290     0.1470 ca         1 4M9      -0.123000
     23 CE3          4.9240    -0.8260     0.0830 ca         1 4M9      -0.071000
     24 C3          -3.2170     3.6800     0.4900 c          1 4M9       0.608100
     25 N4          -4.3460     4.3570     0.1980 nt         1 4M9      -0.608000
     26 O5          -2.1640     4.2730     0.6520 o          1 4M9      -0.604100
     27 H1          -3.2680    -3.0650    -1.4880 h1         1 4M9       0.086700
     28 H2          -2.2250    -4.2970    -0.7780 h1         1 4M9       0.086700
     29 H3          -4.6220    -3.8210     0.3590 h4         1 4M9      -0.004800
     30 H4          -4.8800     0.1130    -0.8660 hn         1 4M9       0.394400
     31 H5          -1.9030     1.7770    -0.9720 hc         1 4M9       0.090700
     32 H6          -3.5420     1.8070    -1.5450 hc         1 4M9       0.090700
     33 H7          -4.3950     1.8920     0.7950 hc         1 4M9       0.059200
     34 H8          -2.7080     1.8010     1.4130 hc         1 4M9       0.059200
     35 H9           2.2920    -2.0360     0.0570 ha         1 4M9       0.195000
     36 H10          0.9690     1.7940     0.1920 h4         1 4M9       0.245000
     37 H11          3.0920     3.2730     0.3520 hn         1 4M9       0.357000
     38 H12          5.8630     2.9820     0.3970 ha         1 4M9       0.116000
     39 H13          7.6660     1.2350     0.3080 ha         1 4M9       0.114000
     40 H14          7.0630    -1.1800     0.1080 ha         1 4M9       0.115000
     41 H15          4.6560    -1.8750    -0.0050 ha         1 4M9       0.120000
     42 H16         -5.2140     3.8600     0.0650 hn         1 4M9       0.316000
     43 H17         -4.3120     5.3620     0.1160 hn         1 4M9       0.316000
@<TRIPOS>BOND
     1     1     2 2   
     2     2     3 1   
     3     2     7 1   
     4     3     4 1   
     5     3     9 1   
     6     4     5 1   
     7     4    27 1   
     8     4    28 1   
     9     5     6 2   
    10     5    29 1   
    11     7     8 1   
    12     7    14 2   
    13     8     9 2   
    14     9    10 1   
    15    10    11 2   
    16    10    12 1   
    17    11    30 1   
    18    12    13 1   
    19    12    31 1   
    20    12    32 1   
    21    13    24 1   
    22    13    33 1   
    23    13    34 1   
    24    14    15 1   
    25    14    35 1   
    26    15    16 2   
    27    15    19 1   
    28    16    17 1   
    29    16    36 1   
    30    17    18 1   
    31    17    37 1   
    32    18    19 ar  
    33    18    20 ar  
    34    19    23 ar  
    35    20    21 ar  
    36    20    38 1   
    37    21    22 ar  
    38    21    39 1   
    39    22    23 ar  
    40    22    40 1   
    41    23    41 1   
    42    24    25 1   
    43    24    26 2   
    44    25    42 1   
    45    25    43 1   
@<TRIPOS>SUBSTRUCTURE
     1 4M9         1 TEMP              0 ****  ****    0 ROOT
