@<TRIPOS>MOLECULE
4M9
   43    45     1     0     0
SMALL
bcc


@<TRIPOS>ATOM
      1 O2           0.2180    -3.7210    -0.4690 o          1 4M9      -0.597500
      2 C2          -0.1990    -2.5870    -0.3310 c          1 4M9       0.686700
      3 N3          -1.5350    -2.2120    -0.3130 n          1 4M9      -0.407300
      4 CA3         -2.6150    -3.1340    -0.5530 c3         1 4M9      -0.005000
      5 C           -3.5170    -3.3100     0.6440 c          1 4M9       0.597900
      6 O           -4.5600    -3.9070     0.5870 o          1 4M9      -0.526100
      7 CA2          0.5070    -1.3140    -0.1620 cc         1 4M9      -0.088600
      8 N2          -0.4170    -0.2910    -0.0610 nc         1 4M9      -0.584300
      9 C1          -1.5800    -0.8380    -0.1500 cd         1 4M9       0.375600
     10 CA1         -2.8320    -0.0680    -0.0430 cf         1 4M9       0.415000
     11 N           -3.9010    -0.7270     0.1290 n2         1 4M9      -0.764100
     12 CB1         -2.6790     1.4250    -0.1300 c3         1 4M9      -0.156700
     13 CG1         -3.9680     2.1910     0.0970 c3         1 4M9      -0.169400
     14 CB2          1.8570    -1.1840    -0.1240 cf         1 4M9       0.101000
     15 CG2          2.6170     0.0070     0.0170 cd         1 4M9      -0.174200
     16 CD1          2.1560     1.3100     0.1490 cc         1 4M9      -0.012100
     17 NE1          3.1980     2.1510     0.2490 na         1 4M9      -0.155400
     18 CE2          4.3810     1.4540     0.1880 ca         1 4M9      -0.066200
     19 CD2          4.0570     0.0940     0.0420 ca         1 4M9      -0.066800
     20 CZ2          5.6930     1.9120     0.2490 ca         1 4M9      -0.132000
     21 CH2          6.6960     0.9650     0.1590 ca         1 4M9      -0.115000
     22 CZ3          6.3960    -0.3980     0.0130 ca         1 4M9      -0.141000
     23 CE3          5.0890    -0.8430    -0.0460 ca         1 4M9      -0.089000
     24 C3          -3.7480     3.6920     0.1080 c          1 4M9       0.675100
     25 N4          -4.8120     4.4160    -0.2640 nt         1 4M9      -0.675000
     26 O5          -2.6880     4.1940     0.4560 o          1 4M9      -0.604100
     27 H1          -3.1980    -2.8500    -1.4280 h1         1 4M9       0.086700
     28 H2          -2.1610    -4.1060    -0.7710 h1         1 4M9       0.086700
     29 H3          -3.1120    -2.9250     1.5960 h4         1 4M9      -0.004800
     30 H4          -4.7230    -0.1340     0.2080 hn         1 4M9       0.394400
     31 H5          -1.9200     1.7320     0.5910 hc         1 4M9       0.090700
     32 H6          -2.2620     1.6630    -1.1120 hc         1 4M9       0.090700
     33 H7          -4.7160     1.9340    -0.6570 hc         1 4M9       0.059200
     34 H8          -4.4020     1.9250     1.0680 hc         1 4M9       0.059200
     35 H9           2.4200    -2.1060    -0.2220 ha         1 4M9       0.145000
     36 H10          1.1420     1.6720     0.1750 h4         1 4M9       0.195000
     37 H11          3.1130     3.1500     0.3480 hn         1 4M9       0.306700
     38 H12          5.9190     2.9640     0.3630 ha         1 4M9       0.134000
     39 H13          7.7300     1.2800     0.2030 ha         1 4M9       0.132000
     40 H14          7.2060    -1.1130    -0.0540 ha         1 4M9       0.133000
     41 H15          4.8780    -1.8990    -0.1560 ha         1 4M9       0.138000
     42 H16         -5.6770     3.9870    -0.5430 hn         1 4M9       0.316000
     43 H17         -4.7850     5.4220    -0.2260 hn         1 4M9       0.316000
@<TRIPOS>BOND
     1     1     2 2   
     2     2     3 1   
     3     2     7 1   
     4     3     4 1   
     5     3     9 1   
     6     4     5 1   
     7     4    27 1   
     8     4    28 1   
     9     5     6 2   
    10     5    29 1   
    11     7     8 1   
    12     7    14 2   
    13     8     9 2   
    14     9    10 1   
    15    10    11 2   
    16    10    12 1   
    17    11    30 1   
    18    12    13 1   
    19    12    31 1   
    20    12    32 1   
    21    13    24 1   
    22    13    33 1   
    23    13    34 1   
    24    14    15 1   
    25    14    35 1   
    26    15    16 2   
    27    15    19 1   
    28    16    17 1   
    29    16    36 1   
    30    17    18 1   
    31    17    37 1   
    32    18    19 ar  
    33    18    20 ar  
    34    19    23 ar  
    35    20    21 ar  
    36    20    38 1   
    37    21    22 ar  
    38    21    39 1   
    39    22    23 ar  
    40    22    40 1   
    41    23    41 1   
    42    24    25 1   
    43    24    26 2   
    44    25    42 1   
    45    25    43 1   
@<TRIPOS>SUBSTRUCTURE
     1 4M9         1 TEMP              0 ****  ****    0 ROOT
