@<TRIPOS>MOLECULE
4MA
   17    17     1     0     0
SMALL
No Charge or Current Charge


@<TRIPOS>ATOM
      1 O1          -2.7920    -0.9830     0.0210 o          1 4MA      -0.723500
      2 C7          -2.1840     0.0790     0.0110 c          1 4MA       0.711600
      3 O2          -2.7490     1.1640     0.0000 o          1 4MA      -0.723500
      4 C1          -0.6630     0.0480     0.0130 ca         1 4MA      -0.132600
      5 C2           0.0380    -1.1810     0.0260 ca         1 4MA      -0.088000
      6 C3           1.4440    -1.2070     0.0280 ca         1 4MA      -0.141500
      7 C4           2.1790    -0.0100     0.0160 ca         1 4MA      -0.118300
      8 C8           3.7010    -0.0410     0.0220 c3         1 4MA      -0.029800
      9 C5           1.4930     1.2170     0.0060 ca         1 4MA      -0.141500
     10 C6           0.0870     1.2480     0.0040 ca         1 4MA      -0.088000
     11 H2          -0.5060    -2.1240     0.0350 ha         1 4MA       0.124500
     12 H3           1.9610    -2.1640     0.0400 ha         1 4MA       0.081000
     13 H81          4.0870    -0.0420     1.0480 hc         1 4MA       0.021033
     14 H82          4.0840    -0.9360    -0.4820 hc         1 4MA       0.021033
     15 H83          4.1200     0.8320    -0.4940 hc         1 4MA       0.021033
     16 H5           2.0490     2.1520    -0.0000 ha         1 4MA       0.081000
     17 H6          -0.4180     2.2110    -0.0050 ha         1 4MA       0.124500
@<TRIPOS>BOND
     1     1     2 1   
     2     2     3 1   
     3     2     4 1   
     4     4     5 ar  
     5     4    10 ar  
     6     5     6 ar  
     7     5    11 1   
     8     6     7 ar  
     9     6    12 1   
    10     7     8 1   
    11     7     9 ar  
    12     8    13 1   
    13     8    14 1   
    14     8    15 1   
    15     9    10 ar  
    16     9    16 1   
    17    10    17 1   
@<TRIPOS>SUBSTRUCTURE
     1 4MA         1 TEMP              0 ****  ****    0 ROOT
