@<TRIPOS>MOLECULE
4MA
   17    17     1     0     0
SMALL
abcg2


@<TRIPOS>ATOM
      1 O1          -2.7510    -1.0240     0.0310 o          1 4MA      -0.723500
      2 C7          -2.1680     0.0790     0.0230 c          1 4MA       0.711600
      3 O2          -2.7050     1.2040     0.0220 o          1 4MA      -0.723500
      4 C1          -0.6460     0.0470     0.0160 ca         1 4MA      -0.132600
      5 C2           0.0470    -1.1610     0.0140 ca         1 4MA      -0.088000
      6 C3           1.4340    -1.1900     0.0060 ca         1 4MA      -0.141500
      7 C4           2.1780    -0.0110     0.0030 ca         1 4MA      -0.118300
      8 C8           3.6780    -0.0400     0.0280 c3         1 4MA      -0.029800
      9 C5           1.4830     1.1980     0.0000 ca         1 4MA      -0.141500
     10 C6           0.0960     1.2260     0.0080 ca         1 4MA      -0.088000
     11 H2          -0.5080    -2.0900     0.0150 ha         1 4MA       0.124500
     12 H3           1.9490    -2.1440    -0.0000 ha         1 4MA       0.081000
     13 H81          4.0530     0.0190     1.0530 hc         1 4MA       0.021033
     14 H82          4.0700    -0.9590    -0.4060 hc         1 4MA       0.021033
     15 H83          4.1050     0.8010    -0.5180 hc         1 4MA       0.021033
     16 H5           2.0370     2.1300    -0.0100 ha         1 4MA       0.081000
     17 H6          -0.4200     2.1770     0.0040 ha         1 4MA       0.124500
@<TRIPOS>BOND
     1     1     2 1   
     2     2     3 1   
     3     2     4 1   
     4     4     5 ar  
     5     4    10 ar  
     6     5     6 ar  
     7     5    11 1   
     8     6     7 ar  
     9     6    12 1   
    10     7     8 1   
    11     7     9 ar  
    12     8    13 1   
    13     8    14 1   
    14     8    15 1   
    15     9    10 ar  
    16     9    16 1   
    17    10    17 1   
@<TRIPOS>SUBSTRUCTURE
     1 4MA         1 TEMP              0 ****  ****    0 ROOT
