@<TRIPOS>MOLECULE
4MB
   22    22     1     0     0
SMALL
No Charge or Current Charge


@<TRIPOS>ATOM
      1 C3           0.1480     0.7030     0.1070 ca         1 4MB      -0.136500
      2 C5           2.4460    -0.1120    -0.1620 ca         1 4MB      -0.120600
      3 N1          -1.7100    -0.5830    -0.8750 nu         1 4MB      -0.849100
      4 C2          -0.3500    -0.3960    -0.6200 ca         1 4MB       0.178000
      5 C4           1.5290     0.8430     0.3360 ca         1 4MB      -0.081000
      6 C6           3.9400     0.0390     0.0840 c          1 4MB       0.711600
      7 C9           1.9390    -1.2080    -0.8960 ca         1 4MB      -0.081000
      8 C12         -2.8490    -0.3840     1.6080 c3         1 4MB      -0.385100
      9 C10          0.5570    -1.3430    -1.1210 ca         1 4MB      -0.136500
     10 O7           4.6960    -0.8110    -0.3670 o          1 4MB      -0.714000
     11 O8           4.3340     1.0040     0.7240 o          1 4MB      -0.714000
     12 S11         -3.0480     0.0470    -0.1100 s6         1 4MB       1.180100
     13 O14         -4.1800    -0.7040    -0.6550 o          1 4MB      -0.546500
     14 O13         -2.9790     1.5020    -0.2640 o          1 4MB      -0.546500
     15 H3          -0.5200     1.4610     0.5000 ha         1 4MB       0.102000
     16 HN1         -2.0070    -1.4520    -1.2970 hn         1 4MB       0.473000
     17 H4           1.8840     1.7020     0.9010 ha         1 4MB       0.134500
     18 H9           2.6140    -1.9610    -1.2970 ha         1 4MB       0.134500
     19 H121        -2.7790    -1.4750     1.6700 h1         1 4MB       0.098367
     20 H122        -1.9340     0.0930     1.9710 h1         1 4MB       0.098367
     21 H123        -3.7280    -0.0120     2.1430 h1         1 4MB       0.098367
     22 H10          0.1940    -2.1950    -1.6900 ha         1 4MB       0.102000
@<TRIPOS>BOND
     1     1     4 ar  
     2     1     5 ar  
     3     1    15 1   
     4     2     5 ar  
     5     2     6 1   
     6     2     7 ar  
     7     3     4 1   
     8     3    12 1   
     9     3    16 1   
    10     4     9 ar  
    11     5    17 1   
    12     6    10 1   
    13     6    11 1   
    14     7     9 ar  
    15     7    18 1   
    16     8    12 1   
    17     8    19 1   
    18     8    20 1   
    19     8    21 1   
    20     9    22 1   
    21    12    13 2   
    22    12    14 2   
@<TRIPOS>SUBSTRUCTURE
     1 4MB         1 TEMP              0 ****  ****    0 ROOT
