@<TRIPOS>MOLECULE
4MB
   22    22     1     0     0
SMALL
abcg2


@<TRIPOS>ATOM
      1 C3           0.2370     1.1140    -0.5060 ca         1 4MB      -0.136500
      2 C5           2.3510    -0.0020    -0.1110 ca         1 4MB      -0.120600
      3 N1          -1.7630    -0.1710    -1.0330 nu         1 4MB      -0.849100
      4 C2          -0.3830    -0.1150    -0.7040 ca         1 4MB       0.178000
      5 C4           1.5890     1.1600    -0.2040 ca         1 4MB      -0.081000
      6 C6           3.8380     0.0610     0.2140 c          1 4MB       0.711600
      7 C9           1.7190    -1.2230    -0.3290 ca         1 4MB      -0.081000
      8 C12         -2.7090    -1.1300     1.3690 c3         1 4MB      -0.385100
      9 C10          0.3640    -1.2850    -0.6140 ca         1 4MB      -0.136500
     10 O7           4.4360    -1.0280     0.2980 o          1 4MB      -0.714000
     11 O8           4.3270     1.1970     0.3670 o          1 4MB      -0.714000
     12 S11         -2.9030     0.1390     0.1400 s6         1 4MB       1.180100
     13 O14         -4.1900    -0.0310    -0.5130 o          1 4MB      -0.546500
     14 O13         -2.5690     1.4140     0.7500 o          1 4MB      -0.546500
     15 H3          -0.3310     2.0290    -0.6060 ha         1 4MB       0.102000
     16 HN1         -2.0260    -0.9780    -1.5900 hn         1 4MB       0.473000
     17 H4           2.0650     2.1190    -0.0510 ha         1 4MB       0.134500
     18 H9           2.2920    -2.1390    -0.2660 ha         1 4MB       0.134500
     19 H121        -2.9030    -2.1000     0.9170 h1         1 4MB       0.098367
     20 H122        -1.6990    -1.0940     1.7720 h1         1 4MB       0.098367
     21 H123        -3.4290    -0.9370     2.1630 h1         1 4MB       0.098367
     22 H10         -0.1150    -2.2440    -0.7720 ha         1 4MB       0.102000
@<TRIPOS>BOND
     1     1     4 ar  
     2     1     5 ar  
     3     1    15 1   
     4     2     5 ar  
     5     2     6 1   
     6     2     7 ar  
     7     3     4 1   
     8     3    12 1   
     9     3    16 1   
    10     4     9 ar  
    11     5    17 1   
    12     6    10 1   
    13     6    11 1   
    14     7     9 ar  
    15     7    18 1   
    16     8    12 1   
    17     8    19 1   
    18     8    20 1   
    19     8    21 1   
    20     9    22 1   
    21    12    13 2   
    22    12    14 2   
@<TRIPOS>SUBSTRUCTURE
     1 4MB         1 TEMP              0 ****  ****    0 ROOT
