@<TRIPOS>MOLECULE
4MD
   38    39     1     0     0
SMALL
No Charge or Current Charge


@<TRIPOS>ATOM
      1 C1S         -3.4650     1.3340    -1.4780 ca         1 4MD      -0.084000
      2 C1V         -4.5660     0.7070    -2.0890 ca         1 4MD      -0.105500
      3 C1Q         -4.6670    -0.6930    -2.0880 ca         1 4MD       0.126000
      4 Cl1R        -6.0460    -1.4750    -2.8520 cl         1 4MD      -0.200000
      5 C1U         -3.6710    -1.4710    -1.4770 ca         1 4MD      -0.105500
      6 C1T         -2.5690    -0.8460    -0.8660 ca         1 4MD      -0.084000
      7 C1P         -2.4600     0.5590    -0.8630 ca         1 4MD      -0.095300
      8 C1J         -1.2630     1.2280    -0.1950 c3         1 4MD       0.244100
      9 N1C         -1.2380     1.0390     1.2730 n3         1 4MD      -0.719500
     10 C1W         -2.4510     1.5430     1.9540 c3         1 4MD       0.172100
     11 S1A          0.2050     1.5590     2.0160 sy         1 4MD       1.152600
     12 O1F          0.3030     3.0090     1.8080 o          1 4MD      -0.527500
     13 O1G          0.1970     0.9630     3.3570 o          1 4MD      -0.527500
     14 C1D          1.4750     0.7030     1.0600 ca         1 4MD      -0.253500
     15 C1M          2.3310     1.4180     0.1950 ca         1 4MD      -0.040500
     16 C1N          3.3070     0.7380    -0.5540 ca         1 4MD      -0.032500
     17 C1L          1.6040    -0.6980     1.1670 ca         1 4MD      -0.040500
     18 C1O          2.5800    -1.3780     0.4170 ca         1 4MD      -0.032500
     19 C1E          3.4350    -0.6630    -0.4490 ca         1 4MD      -0.215500
     20 S1B          4.6840    -1.5340    -1.4100 sy         1 4MD       1.127600
     21 O1H          4.3570    -2.9530    -1.5310 o          1 4MD      -0.539500
     22 O1I          5.1160    -0.7340    -2.5540 o          1 4MD      -0.539500
     23 N1K          5.9870    -1.5270    -0.4280 n8         1 4MD      -1.012100
     24 H1S         -3.3960     2.4200    -1.4820 ha         1 4MD       0.123000
     25 H1V         -5.3400     1.3060    -2.5620 ha         1 4MD       0.132000
     26 H1U         -3.7520    -2.5550    -1.4760 ha         1 4MD       0.132000
     27 H1T         -1.8000    -1.4510    -0.3890 ha         1 4MD       0.123000
     28 H1J         -0.3660     0.8020    -0.6610 h1         1 4MD       0.062200
     29 H1JA        -1.2640     2.3000    -0.4380 h1         1 4MD       0.062200
     30 H1W         -3.3590     1.0880     1.5380 h1         1 4MD       0.056700
     31 H1WA        -2.4330     1.3020     3.0260 h1         1 4MD       0.056700
     32 H1WB        -2.5390     2.6330     1.8500 h1         1 4MD       0.056700
     33 H1M          2.2450     2.4990     0.0980 ha         1 4MD       0.140500
     34 H1N          3.9610     1.3040    -1.2150 ha         1 4MD       0.142500
     35 H1L          0.9460    -1.2620     1.8260 ha         1 4MD       0.140500
     36 H1O          2.6660    -2.4590     0.5110 ha         1 4MD       0.142500
     37 HN1K         6.2180    -2.5180    -0.4260 hn         1 4MD       0.481000
     38 HN1A         6.6880    -1.1480    -1.0610 hn         1 4MD       0.481000
@<TRIPOS>BOND
     1     1     2 ar  
     2     1     7 ar  
     3     1    24 1   
     4     2     3 ar  
     5     2    25 1   
     6     3     4 1   
     7     3     5 ar  
     8     5     6 ar  
     9     5    26 1   
    10     6     7 ar  
    11     6    27 1   
    12     7     8 1   
    13     8     9 1   
    14     8    28 1   
    15     8    29 1   
    16     9    10 1   
    17     9    11 1   
    18    10    30 1   
    19    10    31 1   
    20    10    32 1   
    21    11    12 2   
    22    11    13 2   
    23    11    14 1   
    24    14    15 ar  
    25    14    17 ar  
    26    15    16 ar  
    27    15    33 1   
    28    16    19 ar  
    29    16    34 1   
    30    17    18 ar  
    31    17    35 1   
    32    18    19 ar  
    33    18    36 1   
    34    19    20 1   
    35    20    21 2   
    36    20    22 2   
    37    20    23 1   
    38    23    37 1   
    39    23    38 1   
@<TRIPOS>SUBSTRUCTURE
     1 4MD         1 TEMP              0 ****  ****    0 ROOT
