@<TRIPOS>MOLECULE
4MD
   38    39     1     0     0
SMALL
bcc


@<TRIPOS>ATOM
      1 C1S         -3.3180    -0.2000    -1.9670 ca         1 4MD      -0.102000
      2 C1V         -4.6480    -0.1460    -2.3620 ca         1 4MD      -0.123500
      3 C1Q         -5.6360    -0.1750    -1.3940 ca         1 4MD       0.034400
      4 CL1R        -7.3020    -0.1040    -1.8710 cl         1 4MD      -0.108400
      5 C1U         -5.3170    -0.2570    -0.0450 ca         1 4MD      -0.123500
      6 C1T         -3.9860    -0.3140     0.3300 ca         1 4MD      -0.102000
      7 C1P         -2.9730    -0.2890    -0.6260 ca         1 4MD      -0.095300
      8 C1J         -1.5310    -0.3790    -0.2050 c3         1 4MD       0.244100
      9 N1C         -1.2150     0.6680     0.7660 n3         1 4MD      -0.719500
     10 C1W         -1.1760     2.0110     0.2010 c3         1 4MD       0.172100
     11 S1A         -0.1030     0.3060     1.9310 sy         1 4MD       1.294200
     12 O1F         -0.0310     1.4440     2.8280 o          1 4MD      -0.598300
     13 O1G         -0.4350    -1.0060     2.4560 o          1 4MD      -0.598300
     14 C1D          1.4520     0.1800     1.0800 ca         1 4MD      -0.253500
     15 C1M          2.1790     1.3360     0.8320 ca         1 4MD      -0.058500
     16 C1N          3.3570     1.2530     0.1050 ca         1 4MD      -0.050500
     17 C1L          1.8850    -1.0610     0.6280 ca         1 4MD      -0.058500
     18 C1O          3.0650    -1.1430    -0.0890 ca         1 4MD      -0.050500
     19 C1E          3.7860     0.0150    -0.3440 ca         1 4MD      -0.215500
     20 S1B          5.2940    -0.1090    -1.2780 sy         1 4MD       1.269200
     21 O1H          5.1470    -1.1600    -2.2710 o          1 4MD      -0.610300
     22 O1I          5.6460     1.2330    -1.7170 o          1 4MD      -0.610300
     23 N1K          6.3240    -0.6980    -0.1360 n8         1 4MD      -0.901700
     24 H1S         -2.5430    -0.1700    -2.7240 ha         1 4MD       0.141000
     25 H1V         -4.9030    -0.0770    -3.4110 ha         1 4MD       0.150000
     26 H1U         -6.0970    -0.2790     0.7030 ha         1 4MD       0.150000
     27 H1T         -3.7360    -0.3770     1.3820 ha         1 4MD       0.141000
     28 H1J         -1.3560    -1.3570     0.2430 h1         1 4MD       0.062200
     29 H1JA        -0.8760    -0.3040    -1.0800 h1         1 4MD       0.062200
     30 H1W         -2.1360     2.2040    -0.2740 h1         1 4MD       0.056700
     31 H1WA        -1.0410     2.7560     0.9790 h1         1 4MD       0.056700
     32 H1WB        -0.3920     2.1240    -0.5540 h1         1 4MD       0.056700
     33 H1M          1.8470     2.2980     1.1970 ha         1 4MD       0.158500
     34 H1N          3.9230     2.1520    -0.0960 ha         1 4MD       0.160500
     35 H1L          1.3260    -1.9620     0.8360 ha         1 4MD       0.158500
     36 H1O          3.4120    -2.1070    -0.4370 ha         1 4MD       0.160500
     37 HN1K         7.0830    -1.2300    -0.5500 hn         1 4MD       0.425800
     38 HN1A         6.6850     0.0170     0.4870 hn         1 4MD       0.425800
@<TRIPOS>BOND
     1     1     2 ar  
     2     1     7 ar  
     3     1    24 1   
     4     2     3 ar  
     5     2    25 1   
     6     3     4 1   
     7     3     5 ar  
     8     5     6 ar  
     9     5    26 1   
    10     6     7 ar  
    11     6    27 1   
    12     7     8 1   
    13     8     9 1   
    14     8    28 1   
    15     8    29 1   
    16     9    10 1   
    17     9    11 1   
    18    10    30 1   
    19    10    31 1   
    20    10    32 1   
    21    11    12 2   
    22    11    13 2   
    23    11    14 1   
    24    14    15 ar  
    25    14    17 ar  
    26    15    16 ar  
    27    15    33 1   
    28    16    19 ar  
    29    16    34 1   
    30    17    18 ar  
    31    17    35 1   
    32    18    19 ar  
    33    18    36 1   
    34    19    20 1   
    35    20    21 2   
    36    20    22 2   
    37    20    23 1   
    38    23    37 1   
    39    23    38 1   
@<TRIPOS>SUBSTRUCTURE
     1 4MD         1 TEMP              0 ****  ****    0 ROOT
