@<TRIPOS>MOLECULE
4ME
   22    23     1     0     0
SMALL
No Charge or Current Charge


@<TRIPOS>ATOM
      1 CAJ          4.1410    -0.1350    -0.0180 c3         1 4ME       0.154900
      2 OAM          2.8210     0.4400    -0.0160 os         1 4ME      -0.444100
      3 CAI          1.7400    -0.4090    -0.0200 c          1 4ME       0.608700
      4 OAL          1.8550    -1.6280    -0.0260 o          1 4ME      -0.491000
      5 CAG          0.4040     0.3130    -0.0170 ca         1 4ME      -0.098600
      6 CAB          0.3410     1.7340    -0.0100 ca         1 4ME      -0.075000
      7 CAA         -0.9010     2.4100    -0.0070 ca         1 4ME      -0.119000
      8 CAC         -2.1080     1.6860    -0.0110 ca         1 4ME      -0.094000
      9 CAH         -2.0370     0.2880    -0.0170 ca         1 4ME      -0.070200
     10 CAF         -0.8340    -0.3710    -0.0200 ca         1 4ME      -0.048800
     11 CAD         -1.1500    -1.7740    -0.0270 cc         1 4ME      -0.226200
     12 CAE         -2.5340    -1.8940    -0.0280 cd         1 4ME      -0.162100
     13 NAK         -3.1020    -0.5990    -0.0210 na         1 4ME      -0.222700
     14 HAJ1         4.2970    -0.7610     0.8700 h1         1 4ME       0.047033
     15 HAJ2         4.2970    -0.7530    -0.9120 h1         1 4ME       0.047033
     16 HAJ3         4.9010     0.6560    -0.0140 h1         1 4ME       0.047033
     17 HAB          1.2520     2.3280    -0.0070 ha         1 4ME       0.128000
     18 HAA         -0.9240     3.4970    -0.0020 ha         1 4ME       0.115000
     19 HAC         -3.0670     2.2000    -0.0080 ha         1 4ME       0.114000
     20 HAK         -4.0910    -0.3660    -0.0200 hn         1 4ME       0.350000
     21 HAD         -0.4560    -2.6110    -0.0310 ha         1 4ME       0.227000
     22 HAE         -3.1480    -2.7930    -0.0320 h4         1 4ME       0.213000
@<TRIPOS>BOND
     1     1     2 1   
     2     1    14 1   
     3     1    15 1   
     4     1    16 1   
     5     2     3 1   
     6     3     4 2   
     7     3     5 1   
     8     5     6 ar  
     9     5    10 ar  
    10     6     7 ar  
    11     6    17 1   
    12     7     8 ar  
    13     7    18 1   
    14     8     9 ar  
    15     8    19 1   
    16     9    10 ar  
    17     9    13 1   
    18    10    11 1   
    19    11    12 2   
    20    11    21 1   
    21    12    13 1   
    22    12    22 1   
    23    13    20 1   
@<TRIPOS>SUBSTRUCTURE
     1 4ME         1 TEMP              0 ****  ****    0 ROOT
