@<TRIPOS>MOLECULE
4ME
   22    23     1     0     0
SMALL
abcg2


@<TRIPOS>ATOM
      1 CAJ          4.0570    -0.1450    -0.0350 c3         1 4ME       0.154900
      2 OAM          2.7560     0.4390    -0.0420 os         1 4ME      -0.444100
      3 CAI          1.7150    -0.3830     0.0020 c          1 4ME       0.608700
      4 OAL          1.8310    -1.5860     0.0440 o          1 4ME      -0.491000
      5 CAG          0.4190     0.3280    -0.0050 ca         1 4ME      -0.098600
      6 CAB          0.3490     1.7150     0.0050 ca         1 4ME      -0.075000
      7 CAA         -0.8780     2.3860     0.0060 ca         1 4ME      -0.119000
      8 CAC         -2.0720     1.6910    -0.0060 ca         1 4ME      -0.094000
      9 CAH         -2.0080     0.3030    -0.0200 ca         1 4ME      -0.070200
     10 CAF         -0.7840    -0.4100    -0.0170 ca         1 4ME      -0.048800
     11 CAD         -1.1250    -1.7960    -0.0330 cc         1 4ME      -0.226200
     12 CAE         -2.4910    -1.8650    -0.0450 cd         1 4ME      -0.162100
     13 NAK         -3.0190    -0.6120    -0.0370 na         1 4ME      -0.222700
     14 HAJ1         4.2400    -0.6970     0.8870 h1         1 4ME       0.047033
     15 HAJ2         4.2030    -0.8110    -0.8850 h1         1 4ME       0.047033
     16 HAJ3         4.7550     0.6830    -0.1030 h1         1 4ME       0.047033
     17 HAB          1.2540     2.3060     0.0150 ha         1 4ME       0.128000
     18 HAA         -0.8880     3.4680     0.0170 ha         1 4ME       0.115000
     19 HAC         -3.0220     2.2100    -0.0070 ha         1 4ME       0.114000
     20 HAK         -4.0030    -0.3980    -0.0400 hn         1 4ME       0.350000
     21 HAD         -0.4580    -2.6390    -0.0350 ha         1 4ME       0.227000
     22 HAE         -3.1340    -2.7300    -0.0590 h4         1 4ME       0.213000
@<TRIPOS>BOND
     1     1     2 1   
     2     1    14 1   
     3     1    15 1   
     4     1    16 1   
     5     2     3 1   
     6     3     4 2   
     7     3     5 1   
     8     5     6 ar  
     9     5    10 ar  
    10     6     7 ar  
    11     6    17 1   
    12     7     8 ar  
    13     7    18 1   
    14     8     9 ar  
    15     8    19 1   
    16     9    10 ar  
    17     9    13 1   
    18    10    11 1   
    19    11    12 2   
    20    11    21 1   
    21    12    13 1   
    22    12    22 1   
    23    13    20 1   
@<TRIPOS>SUBSTRUCTURE
     1 4ME         1 TEMP              0 ****  ****    0 ROOT
