@<TRIPOS>MOLECULE
4MG
   58    62     1     0     0
SMALL
abcg2


@<TRIPOS>ATOM
      1 CAD          7.5930    -2.4810    -0.3780 c3         1 4MG       0.064900
      2 NBD          6.8080    -1.2840    -0.2130 na         1 4MG      -0.087700
      3 CAW          7.3090    -0.0150    -0.0190 cc         1 4MG      -0.050300
      4 CAC          8.7740     0.2350    -0.0410 c3         1 4MG      -0.037900
      5 CAV          6.2750     0.8670     0.1760 cd         1 4MG      -0.131400
      6 CAB          6.3480     2.3390     0.4070 c3         1 4MG      -0.014900
      7 CAZ          5.0710     0.0990     0.1100 ca         1 4MG      -0.074800
      8 CAJ          3.7220     0.4450     0.2410 ca         1 4MG      -0.071000
      9 CBA          5.4440    -1.2390    -0.1230 ca         1 4MG      -0.058200
     10 CAI          4.4890    -2.2460    -0.2170 ca         1 4MG      -0.102000
     11 CAH          3.1610    -1.8880    -0.0960 ca         1 4MG      -0.136000
     12 CAS          2.7660    -0.5530     0.1310 ca         1 4MG       0.271000
     13 NAP          1.3870    -0.3410     0.2810 nu         1 4MG      -0.925900
     14 C2           0.6420     0.7710     0.0830 ca         1 4MG       0.413900
     15 N3          -0.6690     0.6050     0.2970 nb         1 4MG      -0.300000
     16 N1           1.2220     1.9070    -0.2970 nb         1 4MG      -0.238000
     17 C6           0.4090     2.9400    -0.4810 ca         1 4MG       0.153900
     18 C5          -0.9570     2.8920    -0.2960 ca         1 4MG      -0.267000
     19 C4          -1.4430     1.6500     0.1110 ca         1 4MG       0.283500
     20 NBE         -2.7990     1.4510     0.3480 na         1 4MG       0.096300
     21 CAK         -3.3990     0.3120     0.7840 cc         1 4MG      -0.088000
     22 NAO         -3.6780     2.4480     0.1660 nc         1 4MG      -0.514800
     23 CAT         -4.8480     1.9470     0.4850 cd         1 4MG       0.280300
     24 CAA         -6.0910     2.7620     0.4030 c3         1 4MG      -0.124400
     25 CAU         -4.7310     0.5890     0.8930 cd         1 4MG      -0.213300
     26 CAL         -5.8260    -0.3370     1.3090 c3         1 4MG       0.249100
     27 NBC         -5.9620    -1.4330     0.3790 nq         1 4MG      -0.706600
     28 CAN         -6.4160    -1.1170    -0.9800 cy         1 4MG       0.124300
     29 CAM         -7.0970    -2.3420     0.5650 cy         1 4MG       0.124300
     30 CBB         -7.2140    -2.4220    -0.9670 cy         1 4MG       0.136300
     31 OAE         -8.4720    -2.3540    -1.5650 oh         1 4MG      -0.645000
     32 H1           7.8880    -2.9130     0.5800 h1         1 4MG       0.046700
     33 H2           7.0190    -3.2230    -0.9300 h1         1 4MG       0.046700
     34 H3           8.4910    -2.2670    -0.9520 h1         1 4MG       0.046700
     35 H4           9.2150    -0.0080    -1.0100 hc         1 4MG       0.047367
     36 H5           8.9850     1.2830     0.1610 hc         1 4MG       0.047367
     37 H6           9.2990    -0.3570     0.7110 hc         1 4MG       0.047367
     38 H7           5.8940     2.9010    -0.4130 hc         1 4MG       0.037033
     39 H8           5.8190     2.6270     1.3190 hc         1 4MG       0.037033
     40 H9           7.3750     2.6870     0.5070 hc         1 4MG       0.037033
     41 H10          3.4390     1.4700     0.4270 ha         1 4MG       0.145000
     42 H11          4.7570    -3.2820    -0.3820 ha         1 4MG       0.114000
     43 H12          2.4010    -2.6560    -0.1740 ha         1 4MG       0.109000
     44 H13          0.8400    -1.1630     0.4850 hn         1 4MG       0.507000
     45 H14          0.8770     3.8670    -0.7950 h4         1 4MG       0.025100
     46 H15         -1.5890     3.7490    -0.4520 ha         1 4MG       0.162000
     47 H16         -2.8370    -0.5850     0.9820 h4         1 4MG       0.180000
     48 H17         -6.8210     2.2980    -0.2630 hc         1 4MG       0.050367
     49 H18         -6.5660     2.8590     1.3800 hc         1 4MG       0.050367
     50 H19         -5.8770     3.7610     0.0280 hc         1 4MG       0.050367
     51 H20         -5.6170    -0.7510     2.2990 h1         1 4MG       0.039700
     52 H21         -6.7640     0.2340     1.4030 h1         1 4MG       0.039700
     53 H23         -7.0920    -0.2490    -1.0160 h1         1 4MG       0.056450
     54 H24         -5.6300    -0.9880    -1.7270 h1         1 4MG       0.056450
     55 H25         -6.8840    -3.2520     1.1310 h1         1 4MG       0.056450
     56 H26         -7.9790    -1.8470     0.9950 h1         1 4MG       0.056450
     57 H27         -6.6190    -3.2530    -1.3610 h1         1 4MG       0.051700
     58 H28         -8.8420    -3.2410    -1.6000 ho         1 4MG       0.448000
@<TRIPOS>BOND
     1     1     2 1   
     2     1    32 1   
     3     1    33 1   
     4     1    34 1   
     5     2     3 1   
     6     2     9 1   
     7     3     4 1   
     8     3     5 2   
     9     4    35 1   
    10     4    36 1   
    11     4    37 1   
    12     5     6 1   
    13     5     7 1   
    14     6    38 1   
    15     6    39 1   
    16     6    40 1   
    17     7     8 ar  
    18     7     9 ar  
    19     8    12 ar  
    20     8    41 1   
    21     9    10 ar  
    22    10    11 ar  
    23    10    42 1   
    24    11    12 ar  
    25    11    43 1   
    26    12    13 1   
    27    13    14 1   
    28    13    44 1   
    29    14    15 ar  
    30    14    16 ar  
    31    15    19 ar  
    32    16    17 ar  
    33    17    18 ar  
    34    17    45 1   
    35    18    19 ar  
    36    18    46 1   
    37    19    20 1   
    38    20    21 1   
    39    20    22 1   
    40    21    25 2   
    41    21    47 1   
    42    22    23 2   
    43    23    24 1   
    44    23    25 1   
    45    24    48 1   
    46    24    49 1   
    47    24    50 1   
    48    25    26 1   
    49    26    27 1   
    50    26    51 1   
    51    26    52 1   
    52    27    28 1   
    53    27    29 1   
    54    28    30 1   
    55    28    53 1   
    56    28    54 1   
    57    29    30 1   
    58    29    55 1   
    59    29    56 1   
    60    30    31 1   
    61    30    57 1   
    62    31    58 1   
@<TRIPOS>SUBSTRUCTURE
     1 4MG         1 TEMP              0 ****  ****    0 ROOT
