@<TRIPOS>MOLECULE
4MG
   58    62     1     0     0
SMALL
No Charge or Current Charge


@<TRIPOS>ATOM
      1 CAD          7.5970    -2.4510    -0.9410 c3         1 4MG       0.064900
      2 NBD          6.8720    -1.2810    -0.4140 na         1 4MG      -0.087700
      3 CAW          7.4120    -0.1320     0.2000 cc         1 4MG      -0.050300
      4 CAC          8.8800     0.1220     0.4260 c3         1 4MG      -0.037900
      5 CAV          6.3080     0.6550     0.5230 cd         1 4MG      -0.131400
      6 CAB          6.3620     1.9990     1.2070 c3         1 4MG      -0.014900
      7 CAZ          5.0980    -0.0140     0.0930 ca         1 4MG      -0.074800
      8 CAJ          3.7490     0.3580     0.1810 ca         1 4MG      -0.071000
      9 CBA          5.4890    -1.1940    -0.4730 ca         1 4MG      -0.058200
     10 CAI          4.5530    -2.1010    -0.9890 ca         1 4MG      -0.102000
     11 CAH          3.1870    -1.7550    -0.9140 ca         1 4MG      -0.136000
     12 CAS          2.7740    -0.5250    -0.3430 ca         1 4MG       0.271000
     13 NAP          1.3990    -0.2520    -0.2910 nu         1 4MG      -0.925900
     14 C2           0.6340     0.9030    -0.2100 ca         1 4MG       0.413900
     15 N3          -0.6790     0.6810    -0.0500 nb         1 4MG      -0.300000
     16 N1           1.2400     2.0960    -0.3140 nb         1 4MG      -0.238000
     17 C6           0.4450     3.1750    -0.2380 ca         1 4MG       0.153900
     18 C5          -0.9410     3.0490    -0.0650 ca         1 4MG      -0.267000
     19 C4          -1.5020     1.7540     0.0260 ca         1 4MG       0.283500
     20 NBE         -2.8930     1.6410     0.2010 na         1 4MG       0.096300
     21 CAK         -3.4780     0.6400     0.9620 cc         1 4MG      -0.088000
     22 NAO         -3.7680     2.4880    -0.4490 nc         1 4MG      -0.514800
     23 CAT         -4.9340     2.0070    -0.0560 cd         1 4MG       0.280300
     24 CAA         -6.2130     2.6410    -0.5300 c3         1 4MG      -0.124400
     25 CAU         -4.8170     0.8830     0.8050 cd         1 4MG      -0.213300
     26 CAL         -5.9500     0.1040     1.4130 c3         1 4MG       0.249100
     27 NBC         -6.1210    -1.2020     0.7770 nq         1 4MG      -0.706600
     28 CAN         -6.5280    -1.3170    -0.6580 cy         1 4MG       0.124300
     29 CAM         -7.2480    -2.1140     1.1380 cy         1 4MG       0.124300
     30 CBB         -6.9700    -2.7710    -0.2620 cy         1 4MG       0.136300
     31 OAE         -8.0920    -3.3180    -0.9590 oh         1 4MG      -0.645000
     32 H1           7.2170    -3.3630    -0.4660 h1         1 4MG       0.046700
     33 H2           7.4450    -2.5160    -2.0260 h1         1 4MG       0.046700
     34 H3           8.6690    -2.3600    -0.7330 h1         1 4MG       0.046700
     35 H4           9.4460    -0.0050    -0.5040 hc         1 4MG       0.047367
     36 H5           9.0610     1.1410     0.7870 hc         1 4MG       0.047367
     37 H6           9.2850    -0.5750     1.1690 hc         1 4MG       0.047367
     38 H7           6.6830     2.7800     0.5080 hc         1 4MG       0.037033
     39 H8           5.3860     2.2890     1.6100 hc         1 4MG       0.037033
     40 H9           7.0690     1.9860     2.0450 hc         1 4MG       0.037033
     41 H10          3.4690     1.2910     0.6560 ha         1 4MG       0.145000
     42 H11          4.8630    -3.0440    -1.4350 ha         1 4MG       0.114000
     43 H12          2.4450    -2.4430    -1.3090 ha         1 4MG       0.109000
     44 H13          0.8150    -1.0790    -0.4090 hn         1 4MG       0.507000
     45 H14          0.9230     4.1500    -0.3160 h4         1 4MG       0.025100
     46 H15         -1.5640     3.9370    -0.0020 ha         1 4MG       0.162000
     47 H16         -2.9270    -0.1120     1.5130 h4         1 4MG       0.180000
     48 H17         -6.8480     1.9050    -1.0350 hc         1 4MG       0.050367
     49 H18         -6.7780     3.0530     0.3140 hc         1 4MG       0.050367
     50 H19         -6.0240     3.4590    -1.2360 hc         1 4MG       0.050367
     51 H20         -5.7480    -0.0460     2.4820 h1         1 4MG       0.039700
     52 H21         -6.8850     0.6750     1.3250 h1         1 4MG       0.039700
     53 H23         -7.3610    -0.6690    -0.9600 h1         1 4MG       0.056450
     54 H24         -5.7190    -1.2650    -1.3960 h1         1 4MG       0.056450
     55 H25         -7.0810    -2.7720     1.9990 h1         1 4MG       0.056450
     56 H26         -8.2320    -1.6320     1.2130 h1         1 4MG       0.056450
     57 H27         -6.1390    -3.4890    -0.2520 h1         1 4MG       0.051700
     58 H28         -8.3370    -4.1570    -0.5100 ho         1 4MG       0.448000
@<TRIPOS>BOND
     1     1     2 1   
     2     1    32 1   
     3     1    33 1   
     4     1    34 1   
     5     2     3 1   
     6     2     9 1   
     7     3     4 1   
     8     3     5 2   
     9     4    35 1   
    10     4    36 1   
    11     4    37 1   
    12     5     6 1   
    13     5     7 1   
    14     6    38 1   
    15     6    39 1   
    16     6    40 1   
    17     7     8 ar  
    18     7     9 ar  
    19     8    12 ar  
    20     8    41 1   
    21     9    10 ar  
    22    10    11 ar  
    23    10    42 1   
    24    11    12 ar  
    25    11    43 1   
    26    12    13 1   
    27    13    14 1   
    28    13    44 1   
    29    14    15 ar  
    30    14    16 ar  
    31    15    19 ar  
    32    16    17 ar  
    33    17    18 ar  
    34    17    45 1   
    35    18    19 ar  
    36    18    46 1   
    37    19    20 1   
    38    20    21 1   
    39    20    22 1   
    40    21    25 2   
    41    21    47 1   
    42    22    23 2   
    43    23    24 1   
    44    23    25 1   
    45    24    48 1   
    46    24    49 1   
    47    24    50 1   
    48    25    26 1   
    49    26    27 1   
    50    26    51 1   
    51    26    52 1   
    52    27    28 1   
    53    27    29 1   
    54    28    30 1   
    55    28    53 1   
    56    28    54 1   
    57    29    30 1   
    58    29    55 1   
    59    29    56 1   
    60    30    31 1   
    61    30    57 1   
    62    31    58 1   
@<TRIPOS>SUBSTRUCTURE
     1 4MG         1 TEMP              0 ****  ****    0 ROOT
