@<TRIPOS>MOLECULE
4MH
   65    67     1     0     0
SMALL
bcc


@<TRIPOS>ATOM
      1 C01          5.3350     7.5030     0.2360 c3         1 4MH      -0.090100
      2 C02          4.1150     6.6300    -0.0200 c3         1 4MH      -0.072400
      3 C03          4.4400     5.1430     0.0350 c3         1 4MH      -0.098400
      4 C04          3.2160     4.2780    -0.2230 c3         1 4MH       0.238800
      5 N05          3.5750     2.8780    -0.1700 nu         1 4MH      -0.862900
      6 C06          2.7010     1.8650    -0.2320 ca         1 4MH       0.967900
      7 N07          1.3970     2.1780    -0.2890 nb         1 4MH      -0.812000
      8 C08          0.5740     1.1460    -0.2890 ca         1 4MH       0.534200
      9 C09          0.9610    -0.1840    -0.2510 ca         1 4MH      -0.546200
     10 C10         -0.0070    -1.2920    -0.2140 c          1 4MH       0.715700
     11 O11          0.2920    -2.4400    -0.5480 o          1 4MH      -0.648100
     12 N12         -1.2550    -0.9930     0.2090 ns         1 4MH      -0.566900
     13 C13         -2.2880    -1.9970     0.3320 c3         1 4MH       0.136300
     14 C14         -3.6530    -1.3720     0.2330 ca         1 4MH      -0.053300
     15 C15         -4.0160    -0.6550    -0.9030 ca         1 4MH      -0.139000
     16 C16         -5.2770    -0.0910    -1.0140 ca         1 4MH      -0.028000
     17 C17         -6.1780    -0.2510     0.0290 ca         1 4MH      -0.268500
     18 C18         -5.8360    -0.9570     1.1740 ca         1 4MH      -0.028000
     19 C19         -4.5730    -1.5150     1.2680 ca         1 4MH      -0.139000
     20 S20         -7.7810     0.4930    -0.0610 sy         1 4MH       1.267200
     21 O21         -8.0610     1.1840     1.1900 o          1 4MH      -0.613800
     22 O22         -7.8560     1.2550    -1.3000 o          1 4MH      -0.613800
     23 N23         -8.7530    -0.8410    -0.0660 n8         1 4MH      -0.896700
     24 C24          2.3780    -0.3990    -0.2760 ca         1 4MH       0.803200
     25 N25          2.9010    -1.6250    -0.3420 nu         1 4MH      -0.859900
     26 C26          4.3120    -1.9370    -0.2680 c6         1 4MH       0.237500
     27 C27          4.6050    -3.1710    -1.1150 c6         1 4MH      -0.089400
     28 C28          6.0790    -3.5540    -1.0410 c6         1 4MH      -0.090400
     29 C29          6.5140    -3.7850     0.3980 c6         1 4MH       0.145100
     30 O30          7.8830    -4.1370     0.3910 oh         1 4MH      -0.596800
     31 C31          6.2380    -2.5440     1.2400 c6         1 4MH      -0.090400
     32 C32          4.7650    -2.1560     1.1770 c6         1 4MH      -0.089400
     33 N33          3.2130     0.6350    -0.2340 nb         1 4MH      -0.885000
     34 H011         5.0810     8.5630     0.1940 hc         1 4MH       0.034033
     35 H012         5.7670     7.3050     1.2180 hc         1 4MH       0.034033
     36 H013         6.1120     7.3200    -0.5090 hc         1 4MH       0.034033
     37 H021         3.3370     6.8600     0.7140 hc         1 4MH       0.042200
     38 H022         3.6930     6.8730    -0.9990 hc         1 4MH       0.042200
     39 H031         5.2140     4.9140    -0.7050 hc         1 4MH       0.045200
     40 H032         4.8570     4.8940     1.0150 hc         1 4MH       0.045200
     41 H041         2.4500     4.4900     0.5260 h1         1 4MH       0.054200
     42 H042         2.7830     4.5300    -1.1970 h1         1 4MH       0.054200
     43 H051         4.5510     2.6320    -0.1960 hn         1 4MH       0.448800
     44 H081        -0.4800     1.4000    -0.3470 h4         1 4MH       0.012100
     45 H121        -1.4070    -0.1300     0.7070 hn         1 4MH       0.317500
     46 H131        -2.1610    -2.7250    -0.4690 h1         1 4MH       0.064200
     47 H132        -2.1970    -2.5440     1.2760 h1         1 4MH       0.064200
     48 H151        -3.3090    -0.5350    -1.7150 ha         1 4MH       0.142500
     49 H161        -5.5470     0.4600    -1.9040 ha         1 4MH       0.156500
     50 H181        -6.5410    -1.0780     1.9860 ha         1 4MH       0.156500
     51 H191        -4.3000    -2.0670     2.1580 ha         1 4MH       0.142500
     52 H231        -9.7000    -0.6140     0.2220 hn         1 4MH       0.420300
     53 H232        -8.7590    -1.3210    -0.9610 hn         1 4MH       0.420300
     54 H251         2.2390    -2.3880    -0.3890 hn         1 4MH       0.476800
     55 H261         4.8680    -1.0920    -0.6800 h1         1 4MH       0.082700
     56 H271         3.9910    -4.0080    -0.7640 hc         1 4MH       0.050200
     57 H272         4.3200    -2.9850    -2.1530 hc         1 4MH       0.050200
     58 H281         6.2590    -4.4510    -1.6380 hc         1 4MH       0.051950
     59 H282         6.6890    -2.7530    -1.4740 hc         1 4MH       0.051950
     60 H291         5.9090    -4.6120     0.8060 h1         1 4MH       0.027700
     61 H301         8.1610    -4.2800     1.3000 ho         1 4MH       0.403000
     62 H311         6.5290    -2.7230     2.2800 hc         1 4MH       0.051950
     63 H312         6.8580    -1.7180     0.8730 hc         1 4MH       0.051950
     64 H321         4.5870    -1.2520     1.7630 hc         1 4MH       0.050200
     65 H322         4.1520    -2.9480     1.6220 hc         1 4MH       0.050200
@<TRIPOS>BOND
     1     1     2 1   
     2     1    34 1   
     3     1    35 1   
     4     1    36 1   
     5     2     3 1   
     6     2    37 1   
     7     2    38 1   
     8     3     4 1   
     9     3    39 1   
    10     3    40 1   
    11     4     5 1   
    12     4    41 1   
    13     4    42 1   
    14     5     6 1   
    15     5    43 1   
    16     6     7 ar  
    17     6    33 ar  
    18     7     8 ar  
    19     8     9 ar  
    20     8    44 1   
    21     9    10 1   
    22     9    24 ar  
    23    10    11 2   
    24    10    12 1   
    25    12    13 1   
    26    12    45 1   
    27    13    14 1   
    28    13    46 1   
    29    13    47 1   
    30    14    15 ar  
    31    14    19 ar  
    32    15    16 ar  
    33    15    48 1   
    34    16    17 ar  
    35    16    49 1   
    36    17    18 ar  
    37    17    20 1   
    38    18    19 ar  
    39    18    50 1   
    40    19    51 1   
    41    20    21 2   
    42    20    22 2   
    43    20    23 1   
    44    23    52 1   
    45    23    53 1   
    46    24    25 1   
    47    24    33 ar  
    48    25    26 1   
    49    25    54 1   
    50    26    27 1   
    51    26    32 1   
    52    26    55 1   
    53    27    28 1   
    54    27    56 1   
    55    27    57 1   
    56    28    29 1   
    57    28    58 1   
    58    28    59 1   
    59    29    30 1   
    60    29    31 1   
    61    29    60 1   
    62    30    61 1   
    63    31    32 1   
    64    31    62 1   
    65    31    63 1   
    66    32    64 1   
    67    32    65 1   
@<TRIPOS>SUBSTRUCTURE
     1 4MH         1 TEMP              0 ****  ****    0 ROOT
