@<TRIPOS>MOLECULE
4MH
   65    67     1     0     0
SMALL
No Charge or Current Charge


@<TRIPOS>ATOM
      1 C01          5.4900     7.6390     0.2040 c3         1 4MH      -0.090100
      2 C02          4.2140     6.7750     0.2150 c3         1 4MH      -0.072400
      3 C03          4.4960     5.2770    -0.0380 c3         1 4MH      -0.098400
      4 C04          3.2170     4.4150    -0.0260 c3         1 4MH       0.238800
      5 N05          3.5480     3.0030    -0.2710 nu         1 4MH      -0.918100
      6 C06          2.6740     1.9340    -0.3330 ca         1 4MH       0.441900
      7 N07          1.3680     2.1760    -0.1550 nb         1 4MH      -0.286000
      8 C08          0.5520     1.1120    -0.2210 ca         1 4MH       0.205900
      9 C09          1.0370    -0.1880    -0.4640 ca         1 4MH      -0.415600
     10 C10          0.1090    -1.3650    -0.5280 c          1 4MH       0.648700
     11 O11          0.4970    -2.5090    -0.7170 o          1 4MH      -0.648100
     12 N12         -1.2240    -1.0940    -0.3580 ns         1 4MH      -0.499900
     13 C13         -2.2810    -2.1010    -0.3840 c3         1 4MH       0.136300
     14 C14         -3.6470    -1.4710    -0.1630 ca         1 4MH      -0.053300
     15 C15         -4.4040    -1.0130    -1.2580 ca         1 4MH      -0.121000
     16 C16         -5.6650    -0.4240    -1.0570 ca         1 4MH      -0.010000
     17 C17         -6.1790    -0.2870     0.2500 ca         1 4MH      -0.268500
     18 C18         -5.4210    -0.7420     1.3490 ca         1 4MH      -0.010000
     19 C19         -4.1620    -1.3300     1.1400 ca         1 4MH      -0.121000
     20 S20         -7.7880     0.4630     0.5180 sy         1 4MH       1.125600
     21 O21         -7.8770     1.0250     1.8660 o          1 4MH      -0.543000
     22 O22         -8.2080     1.1910    -0.6760 o          1 4MH      -0.543000
     23 N23         -8.7680    -0.8470     0.5380 n8         1 4MH      -1.007100
     24 C24          2.4270    -0.3040    -0.6320 ca         1 4MH       0.474900
     25 N25          3.0190    -1.5260    -0.8750 nu         1 4MH      -0.915100
     26 C26          4.3870    -1.9030    -0.4920 c6         1 4MH       0.237500
     27 C27          4.7550    -3.2400    -1.1830 c6         1 4MH      -0.089400
     28 C28          6.1630    -3.7270    -0.7550 c6         1 4MH      -0.090400
     29 C29          6.2680    -3.8660     0.7850 c6         1 4MH       0.168300
     30 O30          7.5950    -4.2530     1.1460 oh         1 4MH      -0.659000
     31 C31          5.8960    -2.5320     1.4820 c6         1 4MH      -0.090400
     32 C32          4.4880    -2.0440     1.0510 c6         1 4MH      -0.089400
     33 N33          3.2480     0.7540    -0.5680 nb         1 4MH      -0.359000
     34 H011         5.2400     8.6910     0.3880 hc         1 4MH       0.034033
     35 H012         6.1880     7.3110     0.9830 hc         1 4MH       0.034033
     36 H013         5.9960     7.5710    -0.7660 hc         1 4MH       0.034033
     37 H021         3.7130     6.8920     1.1840 hc         1 4MH       0.042200
     38 H022         3.5230     7.1490    -0.5500 hc         1 4MH       0.042200
     39 H031         4.9970     5.1650    -1.0080 hc         1 4MH       0.045200
     40 H032         5.1870     4.9070     0.7290 hc         1 4MH       0.045200
     41 H041         2.7180     4.5210     0.9480 h1         1 4MH       0.054200
     42 H042         2.5270     4.7810    -0.8000 h1         1 4MH       0.054200
     43 H051         4.5270     2.7630    -0.4170 hn         1 4MH       0.504000
     44 H081        -0.5060     1.3230    -0.0730 h4         1 4MH       0.012100
     45 H121        -1.4840    -0.1290    -0.2060 hn         1 4MH       0.317500
     46 H131        -2.2610    -2.6160    -1.3540 h1         1 4MH       0.064200
     47 H132        -2.0840    -2.8470     0.3980 h1         1 4MH       0.064200
     48 H151        -4.0150    -1.1120    -2.2690 ha         1 4MH       0.124500
     49 H161        -6.2330    -0.0760    -1.9180 ha         1 4MH       0.138500
     50 H181        -5.8030    -0.6430     2.3640 ha         1 4MH       0.138500
     51 H191        -3.5840    -1.6760     1.9940 ha         1 4MH       0.124500
     52 H231        -9.4660    -0.5740    -0.1500 hn         1 4MH       0.475500
     53 H232        -8.2080    -1.5430     0.0520 hn         1 4MH       0.475500
     54 H251         2.3130    -2.2710    -0.8970 hn         1 4MH       0.532000
     55 H261         5.1070    -1.1390    -0.8280 h1         1 4MH       0.082700
     56 H271         4.0110    -4.0100    -0.9340 hc         1 4MH       0.050200
     57 H272         4.7240    -3.1170    -2.2750 hc         1 4MH       0.050200
     58 H281         6.3810    -4.6930    -1.2320 hc         1 4MH       0.051950
     59 H282         6.9230    -3.0210    -1.1190 hc         1 4MH       0.051950
     60 H291         5.5550    -4.6390     1.1110 h1         1 4MH       0.027700
     61 H301         7.5890    -4.4090     2.1160 ho         1 4MH       0.442000
     62 H311         5.9230    -2.6570     2.5730 hc         1 4MH       0.051950
     63 H312         6.6410    -1.7620     1.2370 hc         1 4MH       0.051950
     64 H321         4.2720    -1.0810     1.5330 hc         1 4MH       0.050200
     65 H322         3.7290    -2.7510     1.4130 hc         1 4MH       0.050200
@<TRIPOS>BOND
     1     1     2 1   
     2     1    34 1   
     3     1    35 1   
     4     1    36 1   
     5     2     3 1   
     6     2    37 1   
     7     2    38 1   
     8     3     4 1   
     9     3    39 1   
    10     3    40 1   
    11     4     5 1   
    12     4    41 1   
    13     4    42 1   
    14     5     6 1   
    15     5    43 1   
    16     6     7 ar  
    17     6    33 ar  
    18     7     8 ar  
    19     8     9 ar  
    20     8    44 1   
    21     9    10 1   
    22     9    24 ar  
    23    10    11 2   
    24    10    12 1   
    25    12    13 1   
    26    12    45 1   
    27    13    14 1   
    28    13    46 1   
    29    13    47 1   
    30    14    15 ar  
    31    14    19 ar  
    32    15    16 ar  
    33    15    48 1   
    34    16    17 ar  
    35    16    49 1   
    36    17    18 ar  
    37    17    20 1   
    38    18    19 ar  
    39    18    50 1   
    40    19    51 1   
    41    20    21 2   
    42    20    22 2   
    43    20    23 1   
    44    23    52 1   
    45    23    53 1   
    46    24    25 1   
    47    24    33 ar  
    48    25    26 1   
    49    25    54 1   
    50    26    27 1   
    51    26    32 1   
    52    26    55 1   
    53    27    28 1   
    54    27    56 1   
    55    27    57 1   
    56    28    29 1   
    57    28    58 1   
    58    28    59 1   
    59    29    30 1   
    60    29    31 1   
    61    29    60 1   
    62    30    61 1   
    63    31    32 1   
    64    31    62 1   
    65    31    63 1   
    66    32    64 1   
    67    32    65 1   
@<TRIPOS>SUBSTRUCTURE
     1 4MH         1 TEMP              0 ****  ****    0 ROOT
