@<TRIPOS>MOLECULE
4MI
   18    18     1     0     0
SMALL
No Charge or Current Charge


@<TRIPOS>ATOM
      1 C01          3.8760     1.2110    -0.0210 c3         1 4MI       0.033900
      2 S02          3.1400    -0.4850    -0.0160 ss         1 4MI      -0.231000
      3 C03          1.3590    -0.2470     0.0000 ca         1 4MI      -0.111000
      4 C04          0.7600     1.0280     0.0070 ca         1 4MI      -0.138000
      5 C05         -0.6400     1.1550     0.0200 ca         1 4MI      -0.079500
      6 C06         -1.4730     0.0120     0.0260 ca         1 4MI      -0.128600
      7 C07         -0.8610    -1.2630     0.0190 ca         1 4MI      -0.079500
      8 C08          0.5390    -1.3870     0.0060 ca         1 4MI      -0.138000
      9 C09         -2.9880     0.1500     0.0400 c          1 4MI       0.712600
     10 O10         -3.6700    -0.8660     0.0450 o          1 4MI      -0.720500
     11 O11         -3.4750     1.2720     0.0450 o          1 4MI      -0.720500
     12 H1           3.5480     1.7570    -0.9140 h1         1 4MI       0.053700
     13 H2           3.5640     1.7550     0.8790 h1         1 4MI       0.053700
     14 H3           4.9700     1.1340    -0.0310 h1         1 4MI       0.053700
     15 H4           1.3600     1.9330     0.0030 ha         1 4MI       0.091500
     16 H5          -1.0780     2.1510     0.0250 ha         1 4MI       0.127000
     17 H6          -1.4700    -2.1650     0.0240 ha         1 4MI       0.127000
     18 H7           0.9880    -2.3770     0.0010 ha         1 4MI       0.091500
@<TRIPOS>BOND
     1     1     2 1   
     2     1    12 1   
     3     1    13 1   
     4     1    14 1   
     5     2     3 1   
     6     3     4 ar  
     7     3     8 ar  
     8     4     5 ar  
     9     4    15 1   
    10     5     6 ar  
    11     5    16 1   
    12     6     7 ar  
    13     6     9 1   
    14     7     8 ar  
    15     7    17 1   
    16     8    18 1   
    17     9    10 1   
    18     9    11 1   
@<TRIPOS>SUBSTRUCTURE
     1 4MI         1 TEMP              0 ****  ****    0 ROOT
