@<TRIPOS>MOLECULE
4MI
   18    18     1     0     0
SMALL
bcc


@<TRIPOS>ATOM
      1 C01          3.7890     1.1820    -0.0210 c3         1 4MI      -0.014000
      2 S02          3.1060    -0.4840    -0.0060 ss         1 4MI      -0.310000
      3 C03          1.3650    -0.2190     0.0030 ca         1 4MI       0.015900
      4 C04          0.7640     1.0370     0.0090 ca         1 4MI      -0.156000
      5 C05         -0.6210     1.1440     0.0200 ca         1 4MI      -0.097500
      6 C06         -1.4390     0.0200     0.0250 ca         1 4MI      -0.128600
      7 C07         -0.8230    -1.2320     0.0170 ca         1 4MI      -0.097500
      8 C08          0.5550    -1.3570     0.0060 ca         1 4MI      -0.156000
      9 C09         -2.9540     0.1490     0.0400 c          1 4MI       0.923200
     10 O10         -3.6050    -0.9130     0.0420 o          1 4MI      -0.825800
     11 O11         -3.4170     1.3070     0.0490 o          1 4MI      -0.825800
     12 H1           3.4910     1.7300    -0.9140 h1         1 4MI       0.053700
     13 H2           3.5080     1.7420     0.8690 h1         1 4MI       0.053700
     14 H3           4.8700     1.0630    -0.0300 h1         1 4MI       0.053700
     15 H4           1.3610     1.9390     0.0060 ha         1 4MI       0.109500
     16 H5          -1.0690     2.1280     0.0260 ha         1 4MI       0.145000
     17 H6          -1.4350    -2.1240     0.0190 ha         1 4MI       0.145000
     18 H7           1.0030    -2.3440    -0.0010 ha         1 4MI       0.109500
@<TRIPOS>BOND
     1     1     2 1   
     2     1    12 1   
     3     1    13 1   
     4     1    14 1   
     5     2     3 1   
     6     3     4 ar  
     7     3     8 ar  
     8     4     5 ar  
     9     4    15 1   
    10     5     6 ar  
    11     5    16 1   
    12     6     7 ar  
    13     6     9 1   
    14     7     8 ar  
    15     7    17 1   
    16     8    18 1   
    17     9    10 1   
    18     9    11 1   
@<TRIPOS>SUBSTRUCTURE
     1 4MI         1 TEMP              0 ****  ****    0 ROOT
