@<TRIPOS>MOLECULE
4MK
   74    77     1     0     0
SMALL
abcg2


@<TRIPOS>ATOM
      1 C1           2.7810     4.3240     0.4520 c3         1 4MK      -0.108100
      2 C2           3.6310     3.0770     0.5950 c3         1 4MK       0.184300
      3 C3           4.2370     2.9540     1.9840 c3         1 4MK      -0.108100
      4 O4           2.7650     1.9740     0.3150 os         1 4MK      -0.372100
      5 C5           3.2630     0.7540     0.0250 ca         1 4MK       0.113100
      6 C6           4.6050     0.4530    -0.1430 ca         1 4MK      -0.175000
      7 C7           5.0390    -0.8360    -0.4520 ca         1 4MK      -0.047300
      8 C8           6.5190    -1.0870    -0.6090 c6         1 4MK      -0.019400
      9 C9           7.1070    -0.3470    -1.8160 c6         1 4MK      -0.069400
     10 C10          8.6010    -0.6090    -1.9300 c6         1 4MK       0.158300
     11 N11          9.2710    -0.2140    -0.7040 n7         1 4MK      -0.862400
     12 C12          8.8010    -0.9850     0.4330 c6         1 4MK       0.158300
     13 C13          7.3150    -0.7360     0.6520 c6         1 4MK      -0.069400
     14 C14          4.0920    -1.8490    -0.6170 ca         1 4MK      -0.088300
     15 C15          4.4820    -3.2610    -0.9670 c3         1 4MK      -0.040800
     16 C16          2.7420    -1.5390    -0.4690 ca         1 4MK      -0.083000
     17 C17          2.3090    -0.2630    -0.1390 ca         1 4MK       0.270000
     18 N18          0.9610     0.0910    -0.0170 nu         1 4MK      -0.915900
     19 C19         -0.0660    -0.6230     0.5010 ca         1 4MK       0.427900
     20 N20          0.1490    -1.8490     0.9690 nb         1 4MK      -0.253000
     21 C21         -0.9120    -2.4700     1.4670 ca         1 4MK       0.185900
     22 C22         -2.1620    -1.9020     1.5150 ca         1 4MK      -0.126000
     23 CL1         -3.5170    -2.7560     2.1600 cl         1 4MK      -0.167000
     24 C24         -2.2890    -0.5960     1.0000 ca         1 4MK       0.437900
     25 N25         -3.4970     0.0260     1.0000 nu         1 4MK      -0.972900
     26 C26         -3.7710     1.3160     0.5380 ca         1 4MK       0.395000
     27 C27         -2.9120     2.3850     0.7860 ca         1 4MK      -0.129000
     28 C28         -3.2220     3.6570     0.3360 ca         1 4MK      -0.043000
     29 C29         -4.3990     3.9000    -0.3590 ca         1 4MK      -0.146000
     30 C30         -5.2700     2.8540    -0.6040 ca         1 4MK      -0.004000
     31 C31         -4.9560     1.5740    -0.1670 ca         1 4MK      -0.293500
     32 S32         -6.1200     0.2760    -0.5190 sy         1 4MK       1.019500
     33 O33         -6.3210    -0.4990     0.7120 o          1 4MK      -0.527000
     34 O34         -7.2980     0.8750    -1.1430 o          1 4MK      -0.527000
     35 C35         -5.3030    -0.7810    -1.7390 c3         1 4MK      -0.246700
     36 C36         -6.1960    -1.9900    -1.9880 c3         1 4MK      -0.080100
     37 C37         -5.0000     0.0080    -3.0000 c3         1 4MK      -0.080100
     38 N38         -1.2390     0.0150     0.4920 nb         1 4MK      -0.320000
     39 H1           3.3940     5.2100     0.6160 hc         1 4MK       0.047533
     40 H1A          2.3510     4.3960    -0.5470 hc         1 4MK       0.047533
     41 H1B          1.9690     4.3360     1.1810 hc         1 4MK       0.047533
     42 H2           4.4280     3.1150    -0.1550 h1         1 4MK       0.044700
     43 H3           3.4590     2.9690     2.7480 hc         1 4MK       0.047533
     44 H3A          4.8170     2.0390     2.1030 hc         1 4MK       0.047533
     45 H3B          4.9100     3.7920     2.1680 hc         1 4MK       0.047533
     46 H6           5.3490     1.2300    -0.0230 ha         1 4MK       0.122000
     47 H8           6.6710    -2.1550    -0.7900 hc         1 4MK       0.050700
     48 H9           6.6050    -0.6670    -2.7330 hc         1 4MK       0.048450
     49 H9A          6.9360     0.7290    -1.7160 hc         1 4MK       0.048450
     50 H10          8.7550    -1.6750    -2.1680 h1         1 4MK       0.028700
     51 H10A         9.0180    -0.0360    -2.7620 h1         1 4MK       0.028700
     52 HN11        10.2690    -0.3440    -0.8080 hn         1 4MK       0.410000
     53 H12          8.9620    -2.0690     0.3030 h1         1 4MK       0.028700
     54 H12A         9.3630    -0.6860     1.3210 h1         1 4MK       0.028700
     55 H13          7.1650     0.3150     0.9160 hc         1 4MK       0.048450
     56 H13A         6.9600    -1.3310     1.4970 hc         1 4MK       0.048450
     57 H15          5.1410    -3.7020    -0.2170 hc         1 4MK       0.040700
     58 H15A         3.6020    -3.8980    -1.0410 hc         1 4MK       0.040700
     59 H15B         5.0060    -3.3140    -1.9230 hc         1 4MK       0.040700
     60 H16          2.0080    -2.3190    -0.6100 ha         1 4MK       0.137000
     61 HN18         0.7270     1.0470    -0.2380 hn         1 4MK       0.523000
     62 H21         -0.7590    -3.4730     1.8500 h4         1 4MK       0.034100
     63 HN25        -4.2880    -0.5080     1.3320 hn         1 4MK       0.545000
     64 H27         -2.0040     2.2230     1.3470 ha         1 4MK       0.139000
     65 H28         -2.5400     4.4690     0.5460 ha         1 4MK       0.118000
     66 H29         -4.6400     4.8960    -0.7030 ha         1 4MK       0.122000
     67 H30         -6.1910     3.0330    -1.1420 ha         1 4MK       0.145000
     68 H35         -4.3730    -1.0980    -1.2600 h1         1 4MK       0.095700
     69 H36         -7.1340    -1.7010    -2.4600 hc         1 4MK       0.054200
     70 H36A        -5.6760    -2.6680    -2.6640 hc         1 4MK       0.054200
     71 H36B        -6.4140    -2.5380    -1.0730 hc         1 4MK       0.054200
     72 H37         -5.9120     0.3690    -3.4750 hc         1 4MK       0.054200
     73 H37A        -4.3420     0.8550    -2.8120 hc         1 4MK       0.054200
     74 H37B        -4.4910    -0.6480    -3.7050 hc         1 4MK       0.054200
@<TRIPOS>BOND
     1     1     2 1   
     2     1    39 1   
     3     1    40 1   
     4     1    41 1   
     5     2     3 1   
     6     2     4 1   
     7     2    42 1   
     8     3    43 1   
     9     3    44 1   
    10     3    45 1   
    11     4     5 1   
    12     5     6 ar  
    13     5    17 ar  
    14     6     7 ar  
    15     6    46 1   
    16     7     8 1   
    17     7    14 ar  
    18     8     9 1   
    19     8    13 1   
    20     8    47 1   
    21     9    10 1   
    22     9    48 1   
    23     9    49 1   
    24    10    11 1   
    25    10    50 1   
    26    10    51 1   
    27    11    12 1   
    28    11    52 1   
    29    12    13 1   
    30    12    53 1   
    31    12    54 1   
    32    13    55 1   
    33    13    56 1   
    34    14    15 1   
    35    14    16 ar  
    36    15    57 1   
    37    15    58 1   
    38    15    59 1   
    39    16    17 ar  
    40    16    60 1   
    41    17    18 1   
    42    18    19 1   
    43    18    61 1   
    44    19    20 ar  
    45    19    38 ar  
    46    20    21 ar  
    47    21    22 ar  
    48    21    62 1   
    49    22    23 1   
    50    22    24 ar  
    51    24    25 1   
    52    24    38 ar  
    53    25    26 1   
    54    25    63 1   
    55    26    27 ar  
    56    26    31 ar  
    57    27    28 ar  
    58    27    64 1   
    59    28    29 ar  
    60    28    65 1   
    61    29    30 ar  
    62    29    66 1   
    63    30    31 ar  
    64    30    67 1   
    65    31    32 1   
    66    32    33 2   
    67    32    34 2   
    68    32    35 1   
    69    35    36 1   
    70    35    37 1   
    71    35    68 1   
    72    36    69 1   
    73    36    70 1   
    74    36    71 1   
    75    37    72 1   
    76    37    73 1   
    77    37    74 1   
@<TRIPOS>SUBSTRUCTURE
     1 4MK         1 TEMP              0 ****  ****    0 ROOT
