@<TRIPOS>MOLECULE
4MK
   74    77     1     0     0
SMALL
No Charge or Current Charge


@<TRIPOS>ATOM
      1 C1           2.6790     4.3230     0.0990 c3         1 4MK      -0.108100
      2 C2           3.5910     3.1030     0.3250 c3         1 4MK       0.184300
      3 C3           4.1560     3.0580     1.7630 c3         1 4MK      -0.108100
      4 O4           2.7720     1.9360     0.1170 os         1 4MK      -0.372100
      5 C5           3.2780     0.6460    -0.0120 ca         1 4MK       0.113100
      6 C6           4.6520     0.3960    -0.2150 ca         1 4MK      -0.175000
      7 C7           5.1440    -0.9190    -0.3550 ca         1 4MK      -0.047300
      8 C8           6.6630    -1.1240    -0.5640 c6         1 4MK      -0.019400
      9 C9           7.1610    -0.4890    -1.8920 c6         1 4MK      -0.069400
     10 C10          8.6860    -0.6910    -2.0700 c6         1 4MK       0.158300
     11 N11          9.4400    -0.1630    -0.9070 n7         1 4MK      -0.862400
     12 C12          9.0170    -0.7730     0.3770 c6         1 4MK       0.158300
     13 C13          7.5010    -0.5720     0.6230 c6         1 4MK      -0.069400
     14 C14          4.2280    -2.0030    -0.3110 ca         1 4MK      -0.088300
     15 C15          4.6740    -3.4550    -0.4780 c3         1 4MK      -0.040800
     16 C16          2.8540    -1.7480    -0.1180 ca         1 4MK      -0.083000
     17 C17          2.3670    -0.4370     0.0460 ca         1 4MK       0.270000
     18 N18          0.9990    -0.1510     0.2340 nu         1 4MK      -0.915900
     19 C19         -0.1150    -0.8400     0.6820 ca         1 4MK       0.427900
     20 N20          0.0240    -2.1030     1.1230 nb         1 4MK      -0.253000
     21 C21         -1.0950    -2.7150     1.5520 ca         1 4MK       0.185900
     22 C22         -2.3370    -2.0600     1.5450 ca         1 4MK      -0.126000
     23 Cl1         -3.7960    -2.8880     2.0990 cl         1 4MK      -0.167000
     24 C24         -2.3580    -0.7330     1.0790 ca         1 4MK       0.437900
     25 N25         -3.5520    -0.0260     1.0160 nu         1 4MK      -0.972900
     26 C26         -3.8940     1.2780     0.6610 ca         1 4MK       0.395000
     27 C27         -3.0500     2.3470     1.0180 ca         1 4MK      -0.129000
     28 C28         -3.3790     3.6700     0.6830 ca         1 4MK      -0.043000
     29 C29         -4.5670     3.9350    -0.0110 ca         1 4MK      -0.146000
     30 C30         -5.4250     2.8820    -0.3630 ca         1 4MK      -0.004000
     31 C31         -5.0970     1.5510    -0.0210 ca         1 4MK      -0.293500
     32 S32         -6.2070     0.2260    -0.5220 sy         1 4MK       1.019500
     33 O33         -6.2250    -0.7860     0.5440 o          1 4MK      -0.527000
     34 O34         -7.4580     0.8150    -1.0200 o          1 4MK      -0.527000
     35 C35         -5.3570    -0.5400    -1.9510 c3         1 4MK      -0.246700
     36 C36         -6.1310    -1.7770    -2.4740 c3         1 4MK      -0.080100
     37 C37         -5.0710     0.4830    -3.0810 c3         1 4MK      -0.080100
     38 N38         -1.2460    -0.1250     0.6380 nb         1 4MK      -0.320000
     39 H1           3.2400     5.2540     0.2460 hc         1 4MK       0.047533
     40 H1A          2.2840     4.3220    -0.9230 hc         1 4MK       0.047533
     41 H1B          1.8340     4.3150     0.7980 hc         1 4MK       0.047533
     42 H2           4.4100     3.1530    -0.4030 h1         1 4MK       0.044700
     43 H3           3.3450     2.9810     2.4970 hc         1 4MK       0.047533
     44 H3A          4.8280     2.2040     1.9010 hc         1 4MK       0.047533
     45 H3B          4.7260     3.9690     1.9770 hc         1 4MK       0.047533
     46 H6           5.3530     1.2200    -0.2730 ha         1 4MK       0.122000
     47 H8           6.8920    -2.1940    -0.6280 hc         1 4MK       0.050700
     48 H9           6.6280    -0.9350    -2.7420 hc         1 4MK       0.048450
     49 H9A          6.9360     0.5860    -1.9120 hc         1 4MK       0.048450
     50 H10          8.9010    -1.7640    -2.1880 h1         1 4MK       0.028700
     51 H10A         9.0210    -0.1820    -2.9860 h1         1 4MK       0.028700
     52 HN11        10.4410    -0.3500    -1.0490 hn         1 4MK       0.410000
     53 H12          9.2450    -1.8500     0.3620 h1         1 4MK       0.028700
     54 H12A         9.5870    -0.3240     1.2020 h1         1 4MK       0.028700
     55 H13          7.3020     0.4970     0.7730 hc         1 4MK       0.048450
     56 H13A         7.2090    -1.0770     1.5530 hc         1 4MK       0.048450
     57 H15          5.3730    -3.7460     0.3150 hc         1 4MK       0.040700
     58 H15A         3.8300    -4.1530    -0.4350 hc         1 4MK       0.040700
     59 H15B         5.1690    -3.6070    -1.4450 hc         1 4MK       0.040700
     60 H16          2.1640    -2.5830    -0.1160 ha         1 4MK       0.137000
     61 HN18         0.8100     0.8460     0.1310 hn         1 4MK       0.523000
     62 H21         -0.9940    -3.7410     1.9030 h4         1 4MK       0.034100
     63 HN25        -4.3650    -0.6300     1.1630 hn         1 4MK       0.545000
     64 H27         -2.1390     2.1580     1.5740 ha         1 4MK       0.139000
     65 H28         -2.7160     4.4850     0.9650 ha         1 4MK       0.118000
     66 H29         -4.8250     4.9590    -0.2750 ha         1 4MK       0.122000
     67 H30         -6.3430     3.1110    -0.9040 ha         1 4MK       0.145000
     68 H35         -4.3940    -0.8860    -1.5570 h1         1 4MK       0.095700
     69 H36         -7.1200    -1.4920    -2.8550 hc         1 4MK       0.054200
     70 H36A        -5.5800    -2.2630    -3.2880 hc         1 4MK       0.054200
     71 H36B        -6.2720    -2.5190    -1.6780 hc         1 4MK       0.054200
     72 H37         -6.0030     0.9040    -3.4790 hc         1 4MK       0.054200
     73 H37A        -4.4470     1.3100    -2.7200 hc         1 4MK       0.054200
     74 H37B        -4.5350     0.0030    -3.9090 hc         1 4MK       0.054200
@<TRIPOS>BOND
     1     1     2 1   
     2     1    39 1   
     3     1    40 1   
     4     1    41 1   
     5     2     3 1   
     6     2     4 1   
     7     2    42 1   
     8     3    43 1   
     9     3    44 1   
    10     3    45 1   
    11     4     5 1   
    12     5     6 ar  
    13     5    17 ar  
    14     6     7 ar  
    15     6    46 1   
    16     7     8 1   
    17     7    14 ar  
    18     8     9 1   
    19     8    13 1   
    20     8    47 1   
    21     9    10 1   
    22     9    48 1   
    23     9    49 1   
    24    10    11 1   
    25    10    50 1   
    26    10    51 1   
    27    11    12 1   
    28    11    52 1   
    29    12    13 1   
    30    12    53 1   
    31    12    54 1   
    32    13    55 1   
    33    13    56 1   
    34    14    15 1   
    35    14    16 ar  
    36    15    57 1   
    37    15    58 1   
    38    15    59 1   
    39    16    17 ar  
    40    16    60 1   
    41    17    18 1   
    42    18    19 1   
    43    18    61 1   
    44    19    20 ar  
    45    19    38 ar  
    46    20    21 ar  
    47    21    22 ar  
    48    21    62 1   
    49    22    23 1   
    50    22    24 ar  
    51    24    25 1   
    52    24    38 ar  
    53    25    26 1   
    54    25    63 1   
    55    26    27 ar  
    56    26    31 ar  
    57    27    28 ar  
    58    27    64 1   
    59    28    29 ar  
    60    28    65 1   
    61    29    30 ar  
    62    29    66 1   
    63    30    31 ar  
    64    30    67 1   
    65    31    32 1   
    66    32    33 2   
    67    32    34 2   
    68    32    35 1   
    69    35    36 1   
    70    35    37 1   
    71    35    68 1   
    72    36    69 1   
    73    36    70 1   
    74    36    71 1   
    75    37    72 1   
    76    37    73 1   
    77    37    74 1   
@<TRIPOS>SUBSTRUCTURE
     1 4MK         1 TEMP              0 ****  ****    0 ROOT
