@<TRIPOS>MOLECULE
4ML
   18    18     1     0     0
SMALL
No Charge or Current Charge


@<TRIPOS>ATOM
      1 CAF          1.2810    -1.4280    -0.6190 c2         1 4ML      -0.194200
      2 CAE          2.3560    -0.6350    -0.5570 ce         1 4ML      -0.343200
      3 CAJ          2.0810     0.5960     0.1760 c          1 4ML       0.645300
      4 OAC          2.8630     1.5050     0.4040 o          1 4ML      -0.537000
      5 OAH          0.7770     0.5380     0.5810 os         1 4ML      -0.373100
      6 CAK          0.1630    -0.7050     0.1240 c5         1 4ML       0.220200
      7 CAA         -0.2870    -1.5150     1.3620 c3         1 4ML      -0.079100
      8 CAG         -1.0080    -0.3770    -0.8390 c3         1 4ML      -0.211400
      9 CAI         -2.1220     0.4220    -0.1490 c          1 4ML       0.728000
     10 OAD         -2.0630     1.6430    -0.1730 o          1 4ML      -0.723500
     11 OAB         -3.0400    -0.1970     0.3690 o          1 4ML      -0.723500
     12 HAF          1.2190    -2.4030    -1.1080 ha         1 4ML       0.191000
     13 HAE          3.3380    -0.8330    -0.9820 ha         1 4ML       0.199000
     14 HAA         -0.9650    -0.9390     2.0020 hc         1 4ML       0.045700
     15 HAAA        -0.8010    -2.4370     1.0660 hc         1 4ML       0.045700
     16 HAAB         0.5760    -1.8010     1.9760 hc         1 4ML       0.045700
     17 HAG         -0.5760     0.2210    -1.6510 hc         1 4ML       0.032700
     18 HAGA        -1.4030    -1.3420    -1.1790 hc         1 4ML       0.032700
@<TRIPOS>BOND
     1     1     2 2   
     2     1     6 1   
     3     1    12 1   
     4     2     3 1   
     5     2    13 1   
     6     3     4 2   
     7     3     5 1   
     8     5     6 1   
     9     6     7 1   
    10     6     8 1   
    11     7    14 1   
    12     7    15 1   
    13     7    16 1   
    14     8     9 1   
    15     8    17 1   
    16     8    18 1   
    17     9    10 1   
    18     9    11 1   
@<TRIPOS>SUBSTRUCTURE
     1 4ML         1 TEMP              0 ****  ****    0 ROOT
