@<TRIPOS>MOLECULE
4ML
   18    18     1     0     0
SMALL
bcc


@<TRIPOS>ATOM
      1 CAF          1.2720    -1.4240    -0.5280 c2         1 4ML      -0.144200
      2 CAE          2.3360    -0.6430    -0.6770 ce         1 4ML      -0.293200
      3 CAJ          2.0250     0.6520    -0.0570 c          1 4ML       0.720800
      4 OAC          2.7080     1.6410     0.0360 o          1 4ML      -0.612500
      5 OAH          0.7830     0.5990     0.4380 os         1 4ML      -0.349900
      6 CAK          0.1850    -0.6870     0.1950 c5         1 4ML       0.197000
      7 CAA         -0.1250    -1.3630     1.5240 c3         1 4ML      -0.079100
      8 CAG         -1.0300    -0.5270    -0.7160 c3         1 4ML      -0.211400
      9 CAI         -2.2050     0.3410    -0.2140 c          1 4ML       0.938600
     10 OAD         -2.0950     0.9320     0.8730 o          1 4ML      -0.828800
     11 OAB         -3.1820     0.3730    -0.9880 o          1 4ML      -0.828800
     12 HAF          1.1510    -2.4450    -0.8600 ha         1 4ML       0.141000
     13 HAE          3.2770    -0.8670    -1.1540 ha         1 4ML       0.149000
     14 HAA         -0.8610    -0.7910     2.0830 hc         1 4ML       0.045700
     15 HAAA        -0.5260    -2.3600     1.3430 hc         1 4ML       0.045700
     16 HAAB         0.7790    -1.4710     2.1250 hc         1 4ML       0.045700
     17 HAG         -0.6960    -0.1190    -1.6760 hc         1 4ML       0.032700
     18 HAGA        -1.4080    -1.5280    -0.9450 hc         1 4ML       0.032700
@<TRIPOS>BOND
     1     1     2 2   
     2     1     6 1   
     3     1    12 1   
     4     2     3 1   
     5     2    13 1   
     6     3     4 2   
     7     3     5 1   
     8     5     6 1   
     9     6     7 1   
    10     6     8 1   
    11     7    14 1   
    12     7    15 1   
    13     7    16 1   
    14     8     9 1   
    15     8    17 1   
    16     8    18 1   
    17     9    10 1   
    18     9    11 1   
@<TRIPOS>SUBSTRUCTURE
     1 4ML         1 TEMP              0 ****  ****    0 ROOT
