@<TRIPOS>MOLECULE
4MM
   29    28     1     0     0
SMALL
abcg2


@<TRIPOS>ATOM
      1 CAA          4.5160    -0.0180    -0.4920 c3         1 4MM       0.032900
      2 SAI          3.1510    -1.1000    -0.0150 ss         1 4MM      -0.405000
      3 CAG          1.7470    -0.0100    -0.3900 c3         1 4MM       0.045600
      4 CAH          0.4730    -0.6630     0.1340 c3         1 4MM      -0.087400
      5 CAK         -0.8670    -0.1530    -0.3970 c3         1 4MM      -0.038700
      6 CAJ         -1.9400    -1.2060     0.0250 c          1 4MM       0.713000
      7 NAL         -1.2350     1.2730     0.0260 n4         1 4MM      -0.470000
      8 CAB         -2.6920     1.5000    -0.2110 c3         1 4MM       0.076900
      9 CAC         -0.9280     1.5570     1.4550 c3         1 4MM       0.076900
     10 CAD         -0.5060     2.2590    -0.8230 c3         1 4MM       0.076900
     11 O           -2.2840    -1.2100     1.2200 o          1 4MM      -0.660500
     12 O1          -2.2880    -1.9800    -0.8770 o          1 4MM      -0.660500
     13 H1           4.4390     0.2750    -1.5380 h1         1 4MM       0.060033
     14 H2           4.5500     0.8730     0.1330 h1         1 4MM       0.060033
     15 H3           5.4400    -0.5760    -0.3550 h1         1 4MM       0.060033
     16 H4           1.9460     0.9530     0.0820 h1         1 4MM       0.045200
     17 H5           1.6900     0.1470    -1.4690 h1         1 4MM       0.045200
     18 H6           0.4930    -1.7120    -0.1770 hc         1 4MM       0.093700
     19 H7           0.4750    -0.6800     1.2240 hc         1 4MM       0.093700
     20 H8          -0.8330    -0.1090    -1.4870 hx         1 4MM       0.076700
     21 H9          -3.2750     0.9060     0.4820 hx         1 4MM       0.084811
     22 H10         -2.9100     2.5530    -0.0550 hx         1 4MM       0.084811
     23 H11         -2.9330     1.2280    -1.2360 hx         1 4MM       0.084811
     24 H12          0.1470     1.5470     1.6060 hx         1 4MM       0.084811
     25 H13         -1.3090     2.5460     1.6960 hx         1 4MM       0.084811
     26 H14         -1.4040     0.8060     2.0750 hx         1 4MM       0.084811
     27 H15         -0.7390     2.0750    -1.8680 hx         1 4MM       0.084811
     28 H16         -0.8240     3.2610    -0.5480 hx         1 4MM       0.084811
     29 H17          0.5620     2.1760    -0.6660 hx         1 4MM       0.084811
@<TRIPOS>BOND
     1     1     2 1   
     2     1    13 1   
     3     1    14 1   
     4     1    15 1   
     5     2     3 1   
     6     3     4 1   
     7     3    16 1   
     8     3    17 1   
     9     4     5 1   
    10     4    18 1   
    11     4    19 1   
    12     5     6 1   
    13     5     7 1   
    14     5    20 1   
    15     6    11 1   
    16     6    12 1   
    17     7     8 1   
    18     7     9 1   
    19     7    10 1   
    20     8    21 1   
    21     8    22 1   
    22     8    23 1   
    23     9    24 1   
    24     9    25 1   
    25     9    26 1   
    26    10    27 1   
    27    10    28 1   
    28    10    29 1   
@<TRIPOS>SUBSTRUCTURE
     1 4MM         1 TEMP              0 ****  ****    0 ROOT
