@<TRIPOS>MOLECULE
4MM
   29    28     1     0     0
SMALL
No Charge or Current Charge


@<TRIPOS>ATOM
      1 CAA          4.5490     0.0810    -0.5600 c3         1 4MM       0.032900
      2 SAI          3.2430    -1.0380     0.1180 ss         1 4MM      -0.405000
      3 CAG          1.7370    -0.0590    -0.3070 c3         1 4MM       0.045600
      4 CAH          0.4720    -0.7900     0.1740 c3         1 4MM      -0.087400
      5 CAK         -0.8850    -0.2050    -0.3280 c3         1 4MM      -0.038700
      6 CAJ         -2.0000    -1.2490    -0.0030 c          1 4MM       0.713000
      7 NAL         -1.2160     1.2870     0.0250 n4         1 4MM      -0.470000
      8 CAB         -2.7040     1.5600    -0.2430 c3         1 4MM       0.076900
      9 CAC         -0.9300     1.5800     1.5040 c3         1 4MM       0.076900
     10 CAD         -0.4160     2.2550    -0.8590 c3         1 4MM       0.076900
     11 O           -2.2720    -1.4690     1.1690 o          1 4MM      -0.660500
     12 O1          -2.5950    -1.7530    -0.9450 o          1 4MM      -0.660500
     13 H1           4.3990     0.2200    -1.6390 h1         1 4MM       0.060033
     14 H2           4.4990     1.0580    -0.0610 h1         1 4MM       0.060033
     15 H3           5.5400    -0.3590    -0.3900 h1         1 4MM       0.060033
     16 H4           1.8140     0.9190     0.1830 h1         1 4MM       0.045200
     17 H5           1.6970     0.0850    -1.3950 h1         1 4MM       0.045200
     18 H6           0.5370    -1.8290    -0.1720 hc         1 4MM       0.093700
     19 H7           0.4770    -0.8360     1.2700 hc         1 4MM       0.093700
     20 H8          -0.8400    -0.2240    -1.4180 hx         1 4MM       0.076700
     21 H9          -3.3110     0.9270     0.4070 hx         1 4MM       0.084811
     22 H10         -2.9200     2.6100    -0.0350 hx         1 4MM       0.084811
     23 H11         -2.9260     1.3380    -1.2890 hx         1 4MM       0.084811
     24 H12          0.1340     1.4350     1.7010 hx         1 4MM       0.084811
     25 H13         -1.2090     2.6110     1.7270 hx         1 4MM       0.084811
     26 H14         -1.5160     0.8970     2.1220 hx         1 4MM       0.084811
     27 H15         -0.5900     2.0080    -1.9080 hx         1 4MM       0.084811
     28 H16         -0.7520     3.2760    -0.6620 hx         1 4MM       0.084811
     29 H17          0.6460     2.1800    -0.6330 hx         1 4MM       0.084811
@<TRIPOS>BOND
     1     1     2 1   
     2     1    13 1   
     3     1    14 1   
     4     1    15 1   
     5     2     3 1   
     6     3     4 1   
     7     3    16 1   
     8     3    17 1   
     9     4     5 1   
    10     4    18 1   
    11     4    19 1   
    12     5     6 1   
    13     5     7 1   
    14     5    20 1   
    15     6    11 1   
    16     6    12 1   
    17     7     8 1   
    18     7     9 1   
    19     7    10 1   
    20     8    21 1   
    21     8    22 1   
    22     8    23 1   
    23     9    24 1   
    24     9    25 1   
    25     9    26 1   
    26    10    27 1   
    27    10    28 1   
    28    10    29 1   
@<TRIPOS>SUBSTRUCTURE
     1 4MM         1 TEMP              0 ****  ****    0 ROOT
