@<TRIPOS>MOLECULE
4MN
   17    17     1     0     0
SMALL
abcg2


@<TRIPOS>ATOM
      1 N1           2.7950    -0.0420     0.1390 nv         1 4MN      -1.067000
      2 C5           1.4140    -0.0340     0.0630 ca         1 4MN       0.279000
      3 C6           0.6970     1.1680     0.0690 ca         1 4MN      -0.173000
      4 C4           0.6850    -1.2270     0.0290 ca         1 4MN      -0.173000
      5 C3          -0.7010    -1.2100     0.0080 ca         1 4MN      -0.072000
      6 C2          -1.4220    -0.0180     0.0190 ca         1 4MN      -0.119300
      7 C1          -2.9250    -0.0100     0.0260 c3         1 4MN      -0.037800
      8 C7          -0.6890     1.1660     0.0460 ca         1 4MN      -0.072000
      9 H11N         3.2480     0.7910    -0.2020 hn         1 4MN       0.442000
     10 H12N         3.2400    -0.8700    -0.2250 hn         1 4MN       0.442000
     11 H6           1.2330     2.1110     0.0850 ha         1 4MN       0.110000
     12 H4           1.2100    -2.1750     0.0150 ha         1 4MN       0.110000
     13 H7          -1.2110     2.1170     0.0440 ha         1 4MN       0.107000
     14 H3          -1.2340    -2.1540    -0.0250 ha         1 4MN       0.107000
     15 H11C        -3.3210    -0.0040     1.0440 hc         1 4MN       0.038033
     16 H12C        -3.3230     0.8720    -0.4770 hc         1 4MN       0.038033
     17 H13C        -3.3320    -0.8900    -0.4710 hc         1 4MN       0.038033
@<TRIPOS>BOND
     1     1     2 1   
     2     1     9 1   
     3     1    10 1   
     4     2     3 ar  
     5     2     4 ar  
     6     3     8 ar  
     7     3    11 1   
     8     4     5 ar  
     9     4    12 1   
    10     5     6 ar  
    11     5    14 1   
    12     6     7 1   
    13     6     8 ar  
    14     7    15 1   
    15     7    16 1   
    16     7    17 1   
    17     8    13 1   
@<TRIPOS>SUBSTRUCTURE
     1 4MN         1 TEMP              0 ****  ****    0 ROOT
