@<TRIPOS>MOLECULE
4MN
   17    17     1     0     0
SMALL
No Charge or Current Charge


@<TRIPOS>ATOM
      1 N1           2.7720    -0.0400     0.0180 nv         1 4MN      -1.067000
      2 C5           1.4040    -0.0330     0.0220 ca         1 4MN       0.279000
      3 C6           0.7070     1.1840     0.0410 ca         1 4MN      -0.173000
      4 C4           0.6940    -1.2420     0.0070 ca         1 4MN      -0.173000
      5 C3          -0.7120    -1.2380     0.0100 ca         1 4MN      -0.072000
      6 C2          -1.4160    -0.0180     0.0270 ca         1 4MN      -0.119300
      7 C1          -2.9370    -0.0100     0.0340 c3         1 4MN      -0.037800
      8 C7          -0.6990     1.1940     0.0450 ca         1 4MN      -0.072000
      9 H11N         3.2840     0.8310    -0.1070 hn         1 4MN       0.442000
     10 H12N         3.2770    -0.9120    -0.1310 hn         1 4MN       0.442000
     11 H6           1.2510     2.1250     0.0550 ha         1 4MN       0.110000
     12 H4           1.2270    -2.1890    -0.0060 ha         1 4MN       0.110000
     13 H7          -1.2310     2.1440     0.0610 ha         1 4MN       0.107000
     14 H3          -1.2540    -2.1810     0.0010 ha         1 4MN       0.107000
     15 H11C        -3.3230    -0.0220     1.0600 hc         1 4MN       0.038033
     16 H12C        -3.3350     0.8830    -0.4640 hc         1 4MN       0.038033
     17 H13C        -3.3450    -0.8840    -0.4880 hc         1 4MN       0.038033
@<TRIPOS>BOND
     1     1     2 1   
     2     1     9 1   
     3     1    10 1   
     4     2     3 ar  
     5     2     4 ar  
     6     3     8 ar  
     7     3    11 1   
     8     4     5 ar  
     9     4    12 1   
    10     5     6 ar  
    11     5    14 1   
    12     6     7 1   
    13     6     8 ar  
    14     7    15 1   
    15     7    16 1   
    16     7    17 1   
    17     8    13 1   
@<TRIPOS>SUBSTRUCTURE
     1 4MN         1 TEMP              0 ****  ****    0 ROOT
