@<TRIPOS>MOLECULE
4MP
   29    30     1     0     0
SMALL
No Charge or Current Charge


@<TRIPOS>ATOM
      1 O1          -4.0030    -1.0890    -0.5930 o          1 4MP      -0.477000
      2 O2          -1.4180    -2.1340    -0.2080 o          1 4MP      -0.521100
      3 O3           4.4950     0.2470     0.1460 os         1 4MP      -0.337100
      4 N1          -2.0470     0.0740    -0.0590 n          1 4MP      -0.410400
      5 C1          -3.3940    -0.0470    -0.3990 c          1 4MP       0.569000
      6 C2          -3.9560     1.3590    -0.2330 c5         1 4MP      -0.173400
      7 C3          -3.1680     1.8880     0.9880 c5         1 4MP      -0.094400
      8 C4          -1.7440     1.3330     0.6760 c5         1 4MP       0.101000
      9 C6           0.3730    -0.5970    -0.0250 ca         1 4MP      -0.201600
     10 C7           1.2650    -1.4290     0.6830 ca         1 4MP      -0.029500
     11 C8           2.6350    -1.1230     0.7310 ca         1 4MP      -0.186500
     12 C9           3.1400     0.0000     0.0620 ca         1 4MP       0.167100
     13 C10          2.2600     0.8200    -0.6750 ca         1 4MP      -0.186500
     14 C11          0.8880     0.5170    -0.7250 ca         1 4MP      -0.029500
     15 C12          5.1110     1.3720    -0.5050 c3         1 4MP       0.147900
     16 H21         -5.0460     1.3550    -0.1280 hc         1 4MP       0.079700
     17 H22         -3.6640     1.9500    -1.1090 hc         1 4MP       0.079700
     18 H31         -3.5580     1.4660     1.9220 hc         1 4MP       0.060200
     19 H32         -3.1900     2.9800     1.0800 hc         1 4MP       0.060200
     20 H41         -1.1620     1.1590     1.5920 h1         1 4MP       0.054200
     21 H42         -1.1960     2.0420     0.0430 h1         1 4MP       0.054200
     22 H7           0.8940    -2.3070     1.2090 ha         1 4MP       0.124500
     23 H8           3.3120    -1.7640     1.2910 ha         1 4MP       0.127000
     24 H10          2.6210     1.6850    -1.2230 ha         1 4MP       0.127000
     25 H11          0.2340     1.1380    -1.3340 ha         1 4MP       0.124500
     26 H121         6.1900     1.3830    -0.3060 h1         1 4MP       0.044033
     27 H122         4.9670     1.3210    -1.5920 h1         1 4MP       0.044033
     28 H123         4.6890     2.3160    -0.1370 h1         1 4MP       0.044033
     29 C5          -1.0940    -0.9620    -0.0770 c          1 4MP       0.636700
@<TRIPOS>BOND
     1     1     5 2   
     2     2    29 2   
     3     3    12 1   
     4     3    15 1   
     5     4     5 1   
     6     4     8 1   
     7     4    29 1   
     8     5     6 1   
     9     6     7 1   
    10     6    16 1   
    11     6    17 1   
    12     7     8 1   
    13     7    18 1   
    14     7    19 1   
    15     8    20 1   
    16     8    21 1   
    17     9    10 ar  
    18     9    14 ar  
    19     9    29 1   
    20    10    11 ar  
    21    10    22 1   
    22    11    12 ar  
    23    11    23 1   
    24    12    13 ar  
    25    13    14 ar  
    26    13    24 1   
    27    14    25 1   
    28    15    26 1   
    29    15    27 1   
    30    15    28 1   
@<TRIPOS>SUBSTRUCTURE
     1 4MP         1 TEMP              0 ****  ****    0 ROOT
