@<TRIPOS>MOLECULE
4MP
   29    30     1     0     0
SMALL
bcc


@<TRIPOS>ATOM
      1 O1          -3.7470    -0.9300    -1.0990 o          1 4MP      -0.552500
      2 O2          -1.3890    -2.0790    -0.1590 o          1 4MP      -0.521100
      3 O3           4.4490     0.1920     0.1780 os         1 4MP      -0.313900
      4 N1          -1.9710     0.1170    -0.0480 n          1 4MP      -0.544400
      5 C1          -3.2870    -0.0000    -0.4860 c          1 4MP       0.711500
      6 C2          -4.0040     1.2700    -0.0950 c5         1 4MP      -0.173400
      7 C3          -3.1280     1.8610     0.9980 c5         1 4MP      -0.094400
      8 C4          -1.7280     1.4210     0.5830 c5         1 4MP       0.101000
      9 C6           0.3840    -0.5430    -0.0020 ca         1 4MP      -0.201600
     10 C7           1.2550    -1.3670     0.7170 ca         1 4MP      -0.047500
     11 C8           2.6030    -1.0910     0.7720 ca         1 4MP      -0.204500
     12 C9           3.1270     0.0030     0.0740 ca         1 4MP       0.167100
     13 C10          2.2730     0.8120    -0.6730 ca         1 4MP      -0.204500
     14 C11          0.9140     0.5380    -0.6980 ca         1 4MP      -0.047500
     15 C12          5.0390     1.2860    -0.5010 c3         1 4MP       0.124700
     16 H21         -5.0300     1.0590     0.2040 hc         1 4MP       0.079700
     17 H22         -4.0420     1.9220    -0.9740 hc         1 4MP       0.079700
     18 H31         -3.3850     1.4280     1.9650 hc         1 4MP       0.060200
     19 H32         -3.2040     2.9430     1.0780 hc         1 4MP       0.060200
     20 H41         -1.0450     1.3240     1.4230 h1         1 4MP       0.054200
     21 H42         -1.2990     2.1250    -0.1310 h1         1 4MP       0.054200
     22 H7           0.8690    -2.2240     1.2540 ha         1 4MP       0.142500
     23 H8           3.2670    -1.7210     1.3500 ha         1 4MP       0.145000
     24 H10          2.6420     1.6560    -1.2390 ha         1 4MP       0.145000
     25 H11          0.2740     1.1710    -1.2980 ha         1 4MP       0.142500
     26 H121         6.1000     1.2530    -0.2720 h1         1 4MP       0.044033
     27 H122         4.9090     1.2090    -1.5830 h1         1 4MP       0.044033
     28 H123         4.6330     2.2410    -0.1620 h1         1 4MP       0.044033
     29 C5          -1.0480    -0.9200    -0.0830 c          1 4MP       0.703700
@<TRIPOS>BOND
     1     1     5 2   
     2     2    29 2   
     3     3    12 1   
     4     3    15 1   
     5     4     5 1   
     6     4     8 1   
     7     4    29 1   
     8     5     6 1   
     9     6     7 1   
    10     6    16 1   
    11     6    17 1   
    12     7     8 1   
    13     7    18 1   
    14     7    19 1   
    15     8    20 1   
    16     8    21 1   
    17     9    10 ar  
    18     9    14 ar  
    19     9    29 1   
    20    10    11 ar  
    21    10    22 1   
    22    11    12 ar  
    23    11    23 1   
    24    12    13 ar  
    25    13    14 ar  
    26    13    24 1   
    27    14    25 1   
    28    15    26 1   
    29    15    27 1   
    30    15    28 1   
@<TRIPOS>SUBSTRUCTURE
     1 4MP         1 TEMP              0 ****  ****    0 ROOT
