@<TRIPOS>MOLECULE
4MQ
   36    38     1     0     0
SMALL
bcc


@<TRIPOS>ATOM
      1 N1          -3.0850    -0.8400     1.2750 nb         1 4MQ      -0.745000
      2 C2          -2.0830    -1.4410     1.8510 ca         1 4MQ       0.700900
      3 C3          -2.7470     0.0160     0.2740 ca         1 4MQ       0.443600
      4 N3           0.8140    -0.9110    -0.0170 nh         1 4MQ      -0.773300
      5 C4          -1.4100     0.1920    -0.1650 ca         1 4MQ      -0.303600
      6 N4           3.4390     0.4310    -0.2330 n3         1 4MQ      -0.722600
      7 C5          -1.1430     1.2490    -1.0610 ca         1 4MQ      -0.092000
      8 C6          -2.1560     2.0170    -1.5790 ca         1 4MQ      -0.154000
      9 C7          -3.4890     1.7640    -1.2220 ca         1 4MQ      -0.100000
     10 C8          -0.4400    -0.7090     0.4300 ca         1 4MQ       0.749200
     11 C9           1.3700    -0.4770    -1.2860 c3         1 4MQ       0.226800
     12 C10          2.3630     0.6720    -1.1790 c3         1 4MQ       0.145800
     13 C17         -3.7760     0.7890    -0.3030 ca         1 4MQ      -0.186300
     14 C12          1.7530    -1.6930     0.7820 c3         1 4MQ       0.230800
     15 N9          -0.8010    -1.4160     1.4950 nb         1 4MQ      -0.834000
     16 C13          4.5500     1.3280    -0.4870 c3         1 4MQ       0.154100
     17 C15          2.9850     0.5140     1.1530 c3         1 4MQ       0.168800
     18 C16          2.5460    -0.8240     1.7480 c3         1 4MQ      -0.087400
     19 H2          -2.3120    -2.0580     2.7160 h5         1 4MQ       0.041100
     20 H17         -4.7910     0.6120     0.0270 ha         1 4MQ       0.151000
     21 H91C         1.8910    -1.3370    -1.7130 h1         1 4MQ       0.060200
     22 H92C         0.5790    -0.2330    -1.9910 h1         1 4MQ       0.060200
     23 H121         1.2260    -2.4780     1.3170 h1         1 4MQ       0.065200
     24 H122         2.4330    -2.1770     0.0830 h1         1 4MQ       0.065200
     25 H5          -0.1330     1.5110    -1.3280 ha         1 4MQ       0.128000
     26 H101         1.8410     1.6140    -0.9420 h1         1 4MQ       0.036200
     27 H102         2.7940     0.8000    -2.1750 h1         1 4MQ       0.036200
     28 H131         4.2970     2.3920    -0.3580 h1         1 4MQ       0.031700
     29 H132         5.3750     1.0990     0.1880 h1         1 4MQ       0.031700
     30 H133         4.9130     1.1960    -1.5080 h1         1 4MQ       0.031700
     31 H151         3.8000     0.9010     1.7670 h1         1 4MQ       0.033200
     32 H152         2.1700     1.2490     1.2490 h1         1 4MQ       0.033200
     33 H6          -1.9210     2.8270    -2.2560 ha         1 4MQ       0.131000
     34 H7          -4.2840     2.3620    -1.6460 ha         1 4MQ       0.134000
     35 H161         1.9550    -0.6220     2.6450 hc         1 4MQ       0.052200
     36 H162         3.4200    -1.3960     2.0700 hc         1 4MQ       0.052200
@<TRIPOS>BOND
     1     1     2 ar  
     2     1     3 ar  
     3     2    15 ar  
     4     2    19 1   
     5     3     5 ar  
     6     3    13 ar  
     7     4    10 1   
     8     4    11 1   
     9     4    14 1   
    10     5     7 ar  
    11     5    10 ar  
    12     6    12 1   
    13     6    16 1   
    14     6    17 1   
    15     7     8 ar  
    16     7    25 1   
    17     8     9 ar  
    18     8    33 1   
    19     9    13 ar  
    20     9    34 1   
    21    10    15 ar  
    22    11    12 1   
    23    11    21 1   
    24    11    22 1   
    25    12    26 1   
    26    12    27 1   
    27    13    20 1   
    28    14    18 1   
    29    14    23 1   
    30    14    24 1   
    31    16    28 1   
    32    16    29 1   
    33    16    30 1   
    34    17    18 1   
    35    17    31 1   
    36    17    32 1   
    37    18    35 1   
    38    18    36 1   
@<TRIPOS>SUBSTRUCTURE
     1 4MQ         1 TEMP              0 ****  ****    0 ROOT
