@<TRIPOS>MOLECULE
4MQ
   36    38     1     0     0
SMALL
No Charge or Current Charge


@<TRIPOS>ATOM
      1 N1          -3.3450    -1.3750     0.5390 nb         1 4MQ      -0.219000
      2 C2          -2.4080    -2.2990     0.8290 ca         1 4MQ       0.174900
      3 C3          -2.9160    -0.1640     0.1260 ca         1 4MQ       0.050000
      4 N3           0.7690    -0.8090     0.2110 nh         1 4MQ      -0.773300
      5 C4          -1.5300     0.1030     0.0050 ca         1 4MQ      -0.173000
      6 N4           3.6070     0.3510    -0.3910 n3         1 4MQ      -0.722600
      7 C5          -1.0920     1.3800    -0.4110 ca         1 4MQ      -0.074000
      8 C6          -2.0270     2.3800    -0.7210 ca         1 4MQ      -0.136000
      9 C7          -3.4010     2.1150    -0.6120 ca         1 4MQ      -0.082000
     10 C8          -0.6300    -0.9430     0.3280 ca         1 4MQ       0.420900
     11 C9           1.3920    -0.8510    -1.1340 c3         1 4MQ       0.226800
     12 C10          2.5170     0.1940    -1.4100 c3         1 4MQ       0.145800
     13 C17         -3.8400     0.8490    -0.1890 ca         1 4MQ      -0.103000
     14 C12          1.6630    -1.2110     1.3150 c3         1 4MQ       0.230800
     15 N9          -1.0740    -2.1450     0.7420 nb         1 4MQ      -0.308000
     16 C13          4.7350     1.1360    -0.9440 c3         1 4MQ       0.154100
     17 C15          3.1200     0.9320     0.8910 c3         1 4MQ       0.168800
     18 C16          2.4820    -0.0500     1.9020 c3         1 4MQ      -0.087400
     19 H2          -2.7670    -3.2710     1.1630 h5         1 4MQ       0.041100
     20 H17         -4.9070     0.6540    -0.1030 ha         1 4MQ       0.133000
     21 H91C         1.8160    -1.8500    -1.2990 h1         1 4MQ       0.060200
     22 H92C         0.6200    -0.7150    -1.9030 h1         1 4MQ       0.060200
     23 H121         1.0930    -1.6720     2.1330 h1         1 4MQ       0.065200
     24 H122         2.3620    -1.9810     0.9590 h1         1 4MQ       0.065200
     25 H5          -0.0320     1.6080    -0.4890 ha         1 4MQ       0.110000
     26 H101         2.0350     1.1680    -1.5690 h1         1 4MQ       0.036200
     27 H102         2.9620    -0.0830    -2.3750 h1         1 4MQ       0.036200
     28 H131         4.4190     2.1600    -1.1870 h1         1 4MQ       0.031700
     29 H132         5.5610     1.1930    -0.2230 h1         1 4MQ       0.031700
     30 H133         5.1230     0.6690    -1.8600 h1         1 4MQ       0.031700
     31 H151         3.9460     1.4280     1.4180 h1         1 4MQ       0.033200
     32 H152         2.3870     1.7220     0.6720 h1         1 4MQ       0.033200
     33 H6          -1.6870     3.3620    -1.0420 ha         1 4MQ       0.113000
     34 H7          -4.1260     2.8900    -0.8520 ha         1 4MQ       0.116000
     35 H161         1.8410     0.5270     2.5790 hc         1 4MQ       0.052200
     36 H162         3.2760    -0.4800     2.5230 hc         1 4MQ       0.052200
@<TRIPOS>BOND
     1     1     2 ar  
     2     1     3 ar  
     3     2    15 ar  
     4     2    19 1   
     5     3     5 ar  
     6     3    13 ar  
     7     4    10 1   
     8     4    11 1   
     9     4    14 1   
    10     5     7 ar  
    11     5    10 ar  
    12     6    12 1   
    13     6    16 1   
    14     6    17 1   
    15     7     8 ar  
    16     7    25 1   
    17     8     9 ar  
    18     8    33 1   
    19     9    13 ar  
    20     9    34 1   
    21    10    15 ar  
    22    11    12 1   
    23    11    21 1   
    24    11    22 1   
    25    12    26 1   
    26    12    27 1   
    27    13    20 1   
    28    14    18 1   
    29    14    23 1   
    30    14    24 1   
    31    16    28 1   
    32    16    29 1   
    33    16    30 1   
    34    17    18 1   
    35    17    31 1   
    36    17    32 1   
    37    18    35 1   
    38    18    36 1   
@<TRIPOS>SUBSTRUCTURE
     1 4MQ         1 TEMP              0 ****  ****    0 ROOT
