@<TRIPOS>MOLECULE
4MR
   56    60     1     0     0
SMALL
abcg2


@<TRIPOS>ATOM
      1 CAA         -2.8780     3.0500    -3.9750 ca         1 4MR      -0.123000
      2 CAB         -4.1660     3.1400    -3.4690 ca         1 4MR      -0.096500
      3 CAC         -5.2450     2.6550    -4.1980 ca         1 4MR      -0.114000
      4 CAF         -5.0310     2.0760    -5.4420 ca         1 4MR      -0.096500
      5 CAE         -3.7440     1.9710    -5.9550 ca         1 4MR      -0.123000
      6 CAD         -2.6790     2.4630    -5.2180 ca         1 4MR       0.098100
      7 OAG         -1.4240     2.4080    -5.7720 os         1 4MR      -0.252200
      8 CAJ         -0.4470     1.6890    -5.1610 ca         1 4MR       0.154100
      9 CAM          0.8620     1.9860    -5.5190 ca         1 4MR      -0.162500
     10 CAL          1.9110     1.2710    -4.9650 ca         1 4MR      -0.051500
     11 CAI         -0.7010     0.6720    -4.2460 ca         1 4MR      -0.162500
     12 CAH          0.3570    -0.0330    -3.7000 ca         1 4MR      -0.051500
     13 CAK          1.6760     0.2600    -4.0400 ca         1 4MR      -0.142300
     14 CAY          2.7910    -0.5970    -3.4320 c6         1 4MR       0.141500
     15 CAZ          4.1400     0.0990    -3.6560 c          1 4MR       0.565000
     16 OAS          4.5410     0.9590    -2.9120 o          1 4MR      -0.487000
     17 NBA          4.8620    -0.2720    -4.7570 ns         1 4MR      -0.479000
     18 CBF          4.5650    -1.2800    -5.6440 c          1 4MR       0.635000
     19 OBG          5.2420    -1.5020    -6.6170 o          1 4MR      -0.529000
     20 NBE          3.4570    -2.0290    -5.3310 ns         1 4MR      -0.479000
     21 CBD          2.6610    -1.9140    -4.2220 c          1 4MR       0.565000
     22 OBH          1.8500    -2.7600    -3.9480 o          1 4MR      -0.487000
     23 NAX          2.5410    -0.8790    -2.0440 n3         1 4MR      -0.746600
     24 CAR          3.4680    -1.7940    -1.4020 c6         1 4MR       0.168300
     25 CAQ          2.8100    -2.3950    -0.1730 c6         1 4MR       0.226800
     26 CBC          2.2330     0.2170    -1.1380 c6         1 4MR       0.168300
     27 CBB          1.5330    -0.3390     0.0900 c6         1 4MR       0.226800
     28 NAW          2.3570    -1.3500     0.7230 nh         1 4MR      -0.776300
     29 CAV          2.5150    -1.4260     2.0650 ca         1 4MR       0.393900
     30 NAU          3.2210    -2.4560     2.5520 nb         1 4MR      -0.252000
     31 CAT          3.3900    -2.5020     3.8610 ca         1 4MR       0.154900
     32 CAN          2.8730    -1.5510     4.7260 ca         1 4MR      -0.291000
     33 CAO          2.1490    -0.5360     4.1200 ca         1 4MR       0.154900
     34 NAP          1.9620    -0.4620     2.8140 nb         1 4MR      -0.252000
     35 HAA         -2.0390     3.4370    -3.4100 ha         1 4MR       0.129000
     36 HAB         -4.3280     3.5990    -2.5020 ha         1 4MR       0.118500
     37 HAC         -6.2480     2.7330    -3.8010 ha         1 4MR       0.118000
     38 HAF         -5.8660     1.6990    -6.0170 ha         1 4MR       0.118500
     39 HAE         -3.5690     1.5170    -6.9220 ha         1 4MR       0.129000
     40 HAM          1.0600     2.7770    -6.2310 ha         1 4MR       0.134000
     41 HAL          2.9120     1.5420    -5.2750 ha         1 4MR       0.131000
     42 HAI         -1.7110     0.4150    -3.9570 ha         1 4MR       0.134000
     43 HAH          0.1510    -0.8190    -2.9860 ha         1 4MR       0.131000
     44 HNBA         5.7220     0.2320    -4.9390 hn         1 4MR       0.349000
     45 HNBE         3.2810    -2.8200    -5.9390 hn         1 4MR       0.349000
     46 HAR1         4.4020    -1.2910    -1.1090 h1         1 4MR       0.053450
     47 HAR2         3.7380    -2.6150    -2.0680 h1         1 4MR       0.053450
     48 HAQ1         1.9570    -3.0050    -0.4930 h1         1 4MR       0.068450
     49 HAQ2         3.5120    -3.0420     0.3440 h1         1 4MR       0.068450
     50 HBC1         1.5740     0.9390    -1.6180 h1         1 4MR       0.053450
     51 HBC2         3.1340     0.7530    -0.8160 h1         1 4MR       0.053450
     52 HBB1         1.3430     0.4660     0.7940 h1         1 4MR       0.068450
     53 HBB2         0.5680    -0.7720    -0.2010 h1         1 4MR       0.068450
     54 HAT          3.9640    -3.3410     4.2410 h4         1 4MR       0.019100
     55 HAN          3.0160    -1.6010     5.7940 ha         1 4MR       0.135000
     56 HAO          1.6970     0.2520     4.7130 h4         1 4MR       0.019100
@<TRIPOS>BOND
     1     1     2 ar  
     2     1     6 ar  
     3     1    35 1   
     4     2     3 ar  
     5     2    36 1   
     6     3     4 ar  
     7     3    37 1   
     8     4     5 ar  
     9     4    38 1   
    10     5     6 ar  
    11     5    39 1   
    12     6     7 1   
    13     7     8 1   
    14     8     9 ar  
    15     8    11 ar  
    16     9    10 ar  
    17     9    40 1   
    18    10    13 ar  
    19    10    41 1   
    20    11    12 ar  
    21    11    42 1   
    22    12    13 ar  
    23    12    43 1   
    24    13    14 1   
    25    14    15 1   
    26    14    21 1   
    27    14    23 1   
    28    15    16 2   
    29    15    17 1   
    30    17    18 1   
    31    17    44 1   
    32    18    19 2   
    33    18    20 1   
    34    20    21 1   
    35    20    45 1   
    36    21    22 2   
    37    23    24 1   
    38    23    26 1   
    39    24    25 1   
    40    24    46 1   
    41    24    47 1   
    42    25    28 1   
    43    25    48 1   
    44    25    49 1   
    45    26    27 1   
    46    26    50 1   
    47    26    51 1   
    48    27    28 1   
    49    27    52 1   
    50    27    53 1   
    51    28    29 1   
    52    29    30 ar  
    53    29    34 ar  
    54    30    31 ar  
    55    31    32 ar  
    56    31    54 1   
    57    32    33 ar  
    58    32    55 1   
    59    33    34 ar  
    60    33    56 1   
@<TRIPOS>SUBSTRUCTURE
     1 4MR         1 TEMP              0 ****  ****    0 ROOT
