@<TRIPOS>MOLECULE
4MR
   56    60     1     0     0
SMALL
No Charge or Current Charge


@<TRIPOS>ATOM
      1 CAA         -2.8670     2.9560    -4.0800 ca         1 4MR      -0.123000
      2 CAB         -4.0180     3.3780    -3.3900 ca         1 4MR      -0.096500
      3 CAC         -5.2840     3.2420    -3.9860 ca         1 4MR      -0.114000
      4 CAF         -5.4010     2.6900    -5.2740 ca         1 4MR      -0.096500
      5 CAE         -4.2500     2.2680    -5.9640 ca         1 4MR      -0.123000
      6 CAD         -2.9850     2.3890    -5.3650 ca         1 4MR       0.098100
      7 OAG         -1.8740     1.9810    -6.0680 os         1 4MR      -0.252200
      8 CAJ         -0.7930     1.3710    -5.4710 ca         1 4MR       0.154100
      9 CAM          0.4950     1.6620    -5.9370 ca         1 4MR      -0.162500
     10 CAL          1.6170     1.0460    -5.3560 ca         1 4MR      -0.051500
     11 CAI         -0.9650     0.4310    -4.4410 ca         1 4MR      -0.162500
     12 CAH          0.1530    -0.1880    -3.8580 ca         1 4MR      -0.051500
     13 CAK          1.4660     0.1310    -4.2840 ca         1 4MR      -0.142300
     14 CAY          2.7000    -0.5900    -3.6460 c6         1 4MR       0.141500
     15 CAZ          3.9580     0.3550    -3.7510 c          1 4MR       0.565000
     16 OAS          3.9560     1.5180    -3.3710 o          1 4MR      -0.487000
     17 NBA          5.1100    -0.1710    -4.2560 ns         1 4MR      -0.479000
     18 CBF          5.3040    -1.3580    -4.8680 c          1 4MR       0.635000
     19 OBG          6.3850    -1.7090    -5.2940 o          1 4MR      -0.529000
     20 NBE          4.1920    -2.1140    -4.9880 ns         1 4MR      -0.479000
     21 CBD          2.9240    -1.8510    -4.5590 c          1 4MR       0.565000
     22 OBH          2.0240    -2.6270    -4.8550 o          1 4MR      -0.487000
     23 NAX          2.4050    -0.9970    -2.1930 n3         1 4MR      -0.746600
     24 CAR          3.4670    -1.8600    -1.5800 c6         1 4MR       0.168300
     25 CAQ          3.0860    -2.3680    -0.1510 c6         1 4MR       0.226800
     26 CBC          2.1270     0.1580    -1.2750 c6         1 4MR       0.168300
     27 CBB          1.6850    -0.3010     0.1490 c6         1 4MR       0.226800
     28 NAW          2.6520    -1.2680     0.7860 nh         1 4MR      -0.776300
     29 CAV          2.7010    -1.4380     2.1970 ca         1 4MR       0.393900
     30 NAU          3.3930    -2.4990     2.6700 nb         1 4MR      -0.252000
     31 CAT          3.4420    -2.6570     4.0060 ca         1 4MR       0.154900
     32 CAN          2.8020    -1.7570     4.8710 ca         1 4MR      -0.291000
     33 CAO          2.1090    -0.6840     4.2920 ca         1 4MR       0.154900
     34 NAP          2.0580    -0.5230     2.9560 nb         1 4MR      -0.252000
     35 HAA         -1.8900     3.0730    -3.6180 ha         1 4MR       0.129000
     36 HAB         -3.9280     3.8120    -2.3960 ha         1 4MR       0.118500
     37 HAC         -6.1740     3.5700    -3.4520 ha         1 4MR       0.118000
     38 HAF         -6.3810     2.5900    -5.7360 ha         1 4MR       0.118500
     39 HAE         -4.3390     1.8420    -6.9600 ha         1 4MR       0.129000
     40 HAM          0.6250     2.3670    -6.7530 ha         1 4MR       0.134000
     41 HAL          2.5990     1.2870    -5.7570 ha         1 4MR       0.131000
     42 HAI         -1.9630     0.1700    -4.0980 ha         1 4MR       0.134000
     43 HAH         -0.0080    -0.9250    -3.0740 ha         1 4MR       0.131000
     44 HNBA         5.9180     0.4330    -4.2240 hn         1 4MR       0.349000
     45 HNBE         4.3100    -2.9750    -5.5010 hn         1 4MR       0.349000
     46 HAR1         4.4130    -1.3030    -1.5040 h1         1 4MR       0.053450
     47 HAR2         3.6660    -2.7430    -2.2030 h1         1 4MR       0.053450
     48 HAQ1         2.2760    -3.1050    -0.2510 h1         1 4MR       0.068450
     49 HAQ2         3.9620    -2.9040     0.2430 h1         1 4MR       0.068450
     50 HBC1         1.3440     0.8130    -1.6820 h1         1 4MR       0.053450
     51 HBC2         3.0260     0.7780    -1.1510 h1         1 4MR       0.053450
     52 HBB1         1.5710     0.6080     0.7570 h1         1 4MR       0.068450
     53 HBB2         0.6910    -0.7660     0.0730 h1         1 4MR       0.068450
     54 HAT          3.9990    -3.5120     4.3840 h4         1 4MR       0.019100
     55 HAN          2.8430    -1.8860     5.9490 ha         1 4MR       0.135000
     56 HAO          1.5890     0.0540     4.9010 h4         1 4MR       0.019100
@<TRIPOS>BOND
     1     1     2 ar  
     2     1     6 ar  
     3     1    35 1   
     4     2     3 ar  
     5     2    36 1   
     6     3     4 ar  
     7     3    37 1   
     8     4     5 ar  
     9     4    38 1   
    10     5     6 ar  
    11     5    39 1   
    12     6     7 1   
    13     7     8 1   
    14     8     9 ar  
    15     8    11 ar  
    16     9    10 ar  
    17     9    40 1   
    18    10    13 ar  
    19    10    41 1   
    20    11    12 ar  
    21    11    42 1   
    22    12    13 ar  
    23    12    43 1   
    24    13    14 1   
    25    14    15 1   
    26    14    21 1   
    27    14    23 1   
    28    15    16 2   
    29    15    17 1   
    30    17    18 1   
    31    17    44 1   
    32    18    19 2   
    33    18    20 1   
    34    20    21 1   
    35    20    45 1   
    36    21    22 2   
    37    23    24 1   
    38    23    26 1   
    39    24    25 1   
    40    24    46 1   
    41    24    47 1   
    42    25    28 1   
    43    25    48 1   
    44    25    49 1   
    45    26    27 1   
    46    26    50 1   
    47    26    51 1   
    48    27    28 1   
    49    27    52 1   
    50    27    53 1   
    51    28    29 1   
    52    29    30 ar  
    53    29    34 ar  
    54    30    31 ar  
    55    31    32 ar  
    56    31    54 1   
    57    32    33 ar  
    58    32    55 1   
    59    33    34 ar  
    60    33    56 1   
@<TRIPOS>SUBSTRUCTURE
     1 4MR         1 TEMP              0 ****  ****    0 ROOT
