@<TRIPOS>MOLECULE
4MS
   62    65     1     0     0
SMALL
abcg2


@<TRIPOS>ATOM
      1 C4          -4.4580    -1.8260    -0.4010 ca         1 4MS      -0.065000
      2 C5          -5.0500    -2.3960    -1.5160 ca         1 4MS      -0.145000
      3 C6          -5.9950     0.0130    -0.5030 ca         1 4MS      -0.073000
      4 C7           1.4470    -0.7250     0.5660 ca         1 4MS      -0.159900
      5 C8          -4.9210    -0.6170     0.1160 ca         1 4MS      -0.140300
      6 C10         -6.1140    -1.7520    -2.1170 ca         1 4MS       0.191000
      7 C13          0.5030     0.1420    -0.1850 ce         1 4MS       0.750200
      8 C15         -1.5200     1.4520    -0.5780 c2         1 4MS       0.277900
      9 C17         -2.8680     1.7090     0.0190 c5         1 4MS       0.116900
     10 C21          7.2530     0.7550    -1.8430 c3         1 4MS      -0.386100
     11 C22         -4.2520     0.0190     1.3090 c3         1 4MS       0.149300
     12 C24         -2.9580     3.1330     0.6620 c3         1 4MS      -0.033000
     13 C12         -6.5930    -0.5530    -1.6190 ca         1 4MS       0.062000
     14 F34         -6.6970    -2.2920    -3.1880 f          1 4MS      -0.156000
     15 N26         -2.9700     0.6140     0.9670 n          1 4MS      -0.404800
     16 C19         -4.2180     3.2360     1.5250 c3         1 4MS      -0.092100
     17 C18         -1.7420     3.4080     1.5470 c3         1 4MS      -0.092100
     18 C16         -1.8260    -0.1350     1.0400 c          1 4MS       0.604200
     19 O28         -1.7030    -1.1390     1.7180 o          1 4MS      -0.552000
     20 C14         -0.8570     0.4580     0.1080 ce         1 4MS      -0.481800
     21 C2           1.2850    -1.4610     1.7300 ca         1 4MS      -0.028000
     22 N25          1.0240     0.7400    -1.2260 nf         1 4MS      -0.820300
     23 S35          2.6200     0.3570    -1.4520 sy         1 4MS       1.181100
     24 O29          3.4490     1.5360    -1.2560 o          1 4MS      -0.531500
     25 O30          2.7750    -0.3820    -2.6910 o          1 4MS      -0.531500
     26 C11          2.6990    -0.6960    -0.0360 ca         1 4MS      -0.265500
     27 C9           3.8100    -1.3490     0.4520 ca         1 4MS       0.017700
     28 C3           3.6270    -2.0830     1.6240 ca         1 4MS      -0.065000
     29 C1           2.3870    -2.1390     2.2430 ca         1 4MS      -0.082000
     30 C23          5.1580    -1.2140    -0.1970 c3         1 4MS       0.229100
     31 N27          5.8160    -0.0330     0.3650 n7         1 4MS      -0.864300
     32 S36          7.3570     0.3200    -0.1210 s6         1 4MS       1.192100
     33 O31          8.1290    -0.9060     0.0000 o          1 4MS      -0.529000
     34 O32          7.7550     1.5010     0.6260 o          1 4MS      -0.529000
     35 H4          -3.6330    -2.3410     0.0730 ha         1 4MS       0.136000
     36 H5          -4.6980    -3.3370    -1.9150 ha         1 4MS       0.142000
     37 H6          -6.3770     0.9500    -0.1180 ha         1 4MS       0.129000
     38 H17         -3.6440     1.6180    -0.7520 h1         1 4MS       0.095700
     39 H20         -3.9100     3.9990    -1.1000 hc         1 4MS       0.043700
     40 H20A        -3.2010     5.1700     0.0090 hc         1 4MS       0.043700
     41 H20B        -2.1630     4.2440    -1.0590 hc         1 4MS       0.043700
     42 H21          6.5790     1.6020    -1.9560 h1         1 4MS       0.106367
     43 H21A         8.2510     1.0220    -2.1860 h1         1 4MS       0.106367
     44 H21B         6.8870    -0.0940    -2.4160 h1         1 4MS       0.106367
     45 H22         -4.9030     0.7710     1.7460 h1         1 4MS       0.077700
     46 H22A        -4.0710    -0.7240     2.0840 h1         1 4MS       0.077700
     47 H19         -4.1560     2.6190     2.4220 hc         1 4MS       0.043700
     48 H19A        -4.3400     4.2690     1.8560 hc         1 4MS       0.043700
     49 H19B        -5.1230     2.9670     0.9760 hc         1 4MS       0.043700
     50 H18         -0.8120     3.4740     0.9790 hc         1 4MS       0.043700
     51 H18A        -1.8680     4.3630     2.0590 hc         1 4MS       0.043700
     52 H18B        -1.6190     2.6420     2.3150 hc         1 4MS       0.043700
     53 HO33        -0.1530     1.8360    -1.7730 ho         1 4MS       0.560000
     54 H2           0.3310    -1.5160     2.2280 ha         1 4MS       0.164000
     55 H3           4.4660    -2.6150     2.0520 ha         1 4MS       0.133000
     56 H1           2.2740    -2.7180     3.1490 ha         1 4MS       0.130000
     57 H23          5.7590    -2.0930     0.0250 h1         1 4MS       0.070200
     58 H23A         5.0490    -1.1630    -1.2860 h1         1 4MS       0.070200
     59 HN27         5.2320     0.7990     0.3580 hn         1 4MS       0.496000
     60 CL37        -7.9260     0.2160    -2.3930 cl         1 4MS      -0.164000
     61 O33         -1.0810     2.1490    -1.5690 oh         1 4MS      -0.482100
     62 C20         -3.0580     4.1870    -0.4430 c3         1 4MS      -0.092100
@<TRIPOS>BOND
     1     1     2 ar  
     2     1     5 ar  
     3     1    35 1   
     4     2     6 ar  
     5     2    36 1   
     6     3     5 ar  
     7     3    13 ar  
     8     3    37 1   
     9     4     7 1   
    10     4    21 ar  
    11     4    26 ar  
    12     5    11 1   
    13     6    13 ar  
    14     6    14 1   
    15     7    20 1   
    16     7    22 2   
    17     8     9 1   
    18     8    20 2   
    19     8    61 1   
    20     9    12 1   
    21     9    15 1   
    22     9    38 1   
    23    10    32 1   
    24    10    42 1   
    25    10    43 1   
    26    10    44 1   
    27    11    15 1   
    28    11    45 1   
    29    11    46 1   
    30    12    16 1   
    31    12    17 1   
    32    12    62 1   
    33    13    60 1   
    34    15    18 1   
    35    16    47 1   
    36    16    48 1   
    37    16    49 1   
    38    17    50 1   
    39    17    51 1   
    40    17    52 1   
    41    18    19 2   
    42    18    20 1   
    43    21    29 ar  
    44    21    54 1   
    45    22    23 1   
    46    23    24 2   
    47    23    25 2   
    48    23    26 1   
    49    26    27 ar  
    50    27    28 ar  
    51    27    30 1   
    52    28    29 ar  
    53    28    55 1   
    54    29    56 1   
    55    30    31 1   
    56    30    57 1   
    57    30    58 1   
    58    31    32 1   
    59    31    59 1   
    60    32    33 2   
    61    32    34 2   
    62    39    62 1   
    63    40    62 1   
    64    41    62 1   
    65    53    61 1   
@<TRIPOS>SUBSTRUCTURE
     1 4MS         1 TEMP              0 ****  ****    0 ROOT
