@<TRIPOS>MOLECULE
4MS
   62    65     1     0     0
SMALL
No Charge or Current Charge


@<TRIPOS>ATOM
      1 C4          -4.6280    -1.9930    -0.8160 ca         1 4MS      -0.065000
      2 C5          -5.2390    -2.4250    -2.0060 ca         1 4MS      -0.145000
      3 C6          -5.9060     0.0800    -0.9140 ca         1 4MS      -0.073000
      4 C7           1.4270    -0.5030     0.5980 ca         1 4MS      -0.159900
      5 C8          -4.9600    -0.7390    -0.2640 ca         1 4MS      -0.140300
      6 C10         -6.1810    -1.6060    -2.6490 ca         1 4MS       0.191000
      7 C13          0.4420    -0.0340    -0.4330 ce         1 4MS       0.750200
      8 C15         -1.4280     1.5800    -0.5110 c2         1 4MS       0.277900
      9 C17         -2.8290     1.7550     0.1170 c5         1 4MS       0.116900
     10 C21          7.2640    -0.2230    -2.2370 c3         1 4MS      -0.386100
     11 C22         -4.2880    -0.2630     1.0150 c3         1 4MS       0.149300
     12 C24         -2.9200     2.9680     1.1260 c3         1 4MS      -0.033000
     13 C12         -6.5160    -0.3510    -2.1050 ca         1 4MS       0.062000
     14 F34         -6.7600    -2.0320    -3.7950 f          1 4MS      -0.156000
     15 N26         -2.9990     0.4100     0.7480 n          1 4MS      -0.404800
     16 C19         -4.2910     2.9960     1.8580 c3         1 4MS      -0.092100
     17 C18         -1.8030     2.8990     2.2060 c3         1 4MS      -0.092100
     18 C16         -1.8320    -0.3360     0.6740 c          1 4MS       0.604200
     19 O28         -1.6770    -1.4710     1.0910 o          1 4MS      -0.552000
     20 C14         -0.8800     0.4350    -0.0940 ce         1 4MS      -0.481800
     21 C2           1.2590    -0.7180     1.9790 ca         1 4MS      -0.028000
     22 N25          0.9950     0.3290    -1.5630 nf         1 4MS      -0.820300
     23 S35          2.5500    -0.0810    -1.6460 sy         1 4MS       1.181100
     24 O29          3.3840     1.1130    -1.8090 o          1 4MS      -0.531500
     25 O30          2.7030    -1.2620    -2.4990 o          1 4MS      -0.531500
     26 C11          2.6900    -0.5980     0.0350 ca         1 4MS      -0.265500
     27 C9           3.8430    -0.9190     0.7760 ca         1 4MS       0.017700
     28 C3           3.6660    -1.1790     2.1520 ca         1 4MS      -0.065000
     29 C1           2.3870    -1.0770     2.7470 ca         1 4MS      -0.082000
     30 C23          5.2330    -0.9390     0.1420 c3         1 4MS       0.229100
     31 N27          5.7250     0.4360    -0.0600 n7         1 4MS      -0.864300
     32 S36          7.2450     0.6950    -0.6980 s6         1 4MS       1.192100
     33 O31          8.1970     0.1110     0.2480 o          1 4MS      -0.529000
     34 O32          7.2970     2.1250    -0.9980 o          1 4MS      -0.529000
     35 H4          -3.8950    -2.6310    -0.3240 ha         1 4MS       0.136000
     36 H5          -4.9830    -3.3920    -2.4320 ha         1 4MS       0.142000
     37 H6          -6.1670     1.0510    -0.5010 ha         1 4MS       0.129000
     38 H17         -3.5770     1.8980    -0.6730 h1         1 4MS       0.095700
     39 H20         -3.5240     4.3850    -0.4460 hc         1 4MS       0.043700
     40 H20A        -2.9540     5.1690     1.0370 hc         1 4MS       0.043700
     41 H20B        -1.7910     4.4460    -0.0680 hc         1 4MS       0.043700
     42 H21          6.4260     0.1280    -2.8480 h1         1 4MS       0.106367
     43 H21A         8.2210    -0.0150    -2.7240 h1         1 4MS       0.106367
     44 H21B         7.1720    -1.2870    -1.9980 h1         1 4MS       0.106367
     45 H22         -4.9670     0.4160     1.5400 h1         1 4MS       0.077700
     46 H22A        -4.1260    -1.1190     1.6840 h1         1 4MS       0.077700
     47 H19         -4.3660     2.1860     2.5920 hc         1 4MS       0.043700
     48 H19A        -4.4250     3.9330     2.4120 hc         1 4MS       0.043700
     49 H19B        -5.1210     2.9050     1.1460 hc         1 4MS       0.043700
     50 H18         -0.8050     2.9600     1.7560 hc         1 4MS       0.043700
     51 H18A        -1.8950     3.7300     2.9170 hc         1 4MS       0.043700
     52 H18B        -1.8610     1.9640     2.7760 hc         1 4MS       0.043700
     53 HO33        -0.0410     1.9440    -1.6840 ho         1 4MS       0.560000
     54 H2           0.2920    -0.6000     2.4620 ha         1 4MS       0.164000
     55 H3           4.5250    -1.4290     2.7710 ha         1 4MS       0.133000
     56 H1           2.2750    -1.2550     3.8140 ha         1 4MS       0.130000
     57 H23          5.9150    -1.4990     0.7970 h1         1 4MS       0.070200
     58 H23A         5.1780    -1.4900    -0.8080 h1         1 4MS       0.070200
     59 HN27         5.0910     0.9710    -0.6610 hn         1 4MS       0.496000
     60 Cl37        -7.6930     0.6930    -2.9010 cl         1 4MS      -0.164000
     61 O33         -0.8440     2.4280    -1.3650 oh         1 4MS      -0.482100
     62 C20         -2.7890     4.3180     0.3650 c3         1 4MS      -0.092100
@<TRIPOS>BOND
     1     1     2 ar  
     2     1     5 ar  
     3     1    35 1   
     4     2     6 ar  
     5     2    36 1   
     6     3     5 ar  
     7     3    13 ar  
     8     3    37 1   
     9     4     7 1   
    10     4    21 ar  
    11     4    26 ar  
    12     5    11 1   
    13     6    13 ar  
    14     6    14 1   
    15     7    20 1   
    16     7    22 2   
    17     8     9 1   
    18     8    20 2   
    19     8    61 1   
    20     9    12 1   
    21     9    15 1   
    22     9    38 1   
    23    10    32 1   
    24    10    42 1   
    25    10    43 1   
    26    10    44 1   
    27    11    15 1   
    28    11    45 1   
    29    11    46 1   
    30    12    16 1   
    31    12    17 1   
    32    12    62 1   
    33    13    60 1   
    34    15    18 1   
    35    16    47 1   
    36    16    48 1   
    37    16    49 1   
    38    17    50 1   
    39    17    51 1   
    40    17    52 1   
    41    18    19 2   
    42    18    20 1   
    43    21    29 ar  
    44    21    54 1   
    45    22    23 1   
    46    23    24 2   
    47    23    25 2   
    48    23    26 1   
    49    26    27 ar  
    50    27    28 ar  
    51    27    30 1   
    52    28    29 ar  
    53    28    55 1   
    54    29    56 1   
    55    30    31 1   
    56    30    57 1   
    57    30    58 1   
    58    31    32 1   
    59    31    59 1   
    60    32    33 2   
    61    32    34 2   
    62    39    62 1   
    63    40    62 1   
    64    41    62 1   
    65    53    61 1   
@<TRIPOS>SUBSTRUCTURE
     1 4MS         1 TEMP              0 ****  ****    0 ROOT
