@<TRIPOS>MOLECULE
4MT
   23    23     1     0     0
SMALL
abcg2


@<TRIPOS>ATOM
      1 O1          -4.7260    -0.8740    -0.1240 oh         1 4MT      -0.531100
      2 C2          -3.4940    -0.3270    -0.0750 ca         1 4MT       0.146100
      3 C3          -2.8140    -0.1080     1.1200 ca         1 4MT      -0.173000
      4 C4          -1.5510     0.4650     1.1050 ca         1 4MT      -0.062000
      5 C5          -0.9350     0.8350    -0.0870 ca         1 4MT      -0.127300
      6 C6           0.4460     1.4310    -0.0950 c3         1 4MT      -0.039100
      7 C7           1.5110     0.3490     0.0340 c3         1 4MT       0.080000
      8 N8           2.8360     0.9350     0.0360 ns         1 4MT      -0.395900
      9 C9           3.9550     0.2470     0.0910 cs         1 4MT       0.360200
     10 S10          4.0830    -1.4010     0.1560 s          1 4MT      -0.567400
     11 C11         -1.6280     0.6070    -1.2720 ca         1 4MT      -0.062000
     12 C12         -2.8910     0.0340    -1.2770 ca         1 4MT      -0.173000
     13 H1          -5.0250    -1.1100     0.7610 ho         1 4MT       0.466000
     14 H2          -3.2680    -0.3800     2.0660 ha         1 4MT       0.123500
     15 H3          -1.0460     0.6350     2.0490 ha         1 4MT       0.113000
     16 H4           0.6040     1.9830    -1.0260 hc         1 4MT       0.049700
     17 H5           0.5510     2.1480     0.7230 hc         1 4MT       0.049700
     18 H6           1.3710    -0.2280     0.9520 h1         1 4MT       0.075700
     19 H7           1.4350    -0.3560    -0.7980 h1         1 4MT       0.075700
     20 H8           4.8410     0.8790     0.0870 h5         1 4MT       0.041200
     21 H10         -1.1780     0.8790    -2.2190 ha         1 4MT       0.113000
     22 H11         -3.4110    -0.1300    -2.2130 ha         1 4MT       0.123500
     23 H12          2.9090     1.9420     0.0040 hn         1 4MT       0.310500
@<TRIPOS>BOND
     1     1     2 1   
     2     1    13 1   
     3     2     3 ar  
     4     2    12 ar  
     5     3     4 ar  
     6     3    14 1   
     7     4     5 ar  
     8     4    15 1   
     9     5     6 1   
    10     5    11 ar  
    11     6     7 1   
    12     6    16 1   
    13     6    17 1   
    14     7     8 1   
    15     7    18 1   
    16     7    19 1   
    17     8     9 1   
    18     8    23 1   
    19     9    10 2   
    20     9    20 1   
    21    11    12 ar  
    22    11    21 1   
    23    12    22 1   
@<TRIPOS>SUBSTRUCTURE
     1 4MT         1 TEMP              0 ****  ****    0 ROOT
