@<TRIPOS>MOLECULE
4MT
   23    23     1     0     0
SMALL
No Charge or Current Charge


@<TRIPOS>ATOM
      1 O1          -4.7740    -0.8930    -0.1340 oh         1 4MT      -0.531100
      2 C2          -3.5310    -0.3360    -0.1000 ca         1 4MT       0.146100
      3 C3          -2.9110    -0.0610     1.1290 ca         1 4MT      -0.173000
      4 C4          -1.6270     0.5130     1.1560 ca         1 4MT      -0.062000
      5 C5          -0.9600     0.8150    -0.0470 ca         1 4MT      -0.127300
      6 C6           0.4320     1.4310    -0.0190 c3         1 4MT      -0.039100
      7 C7           1.5360     0.3570    -0.0100 c3         1 4MT       0.080000
      8 N8           2.8780     0.9440     0.0180 ns         1 4MT      -0.395900
      9 C9           4.0590     0.2490     0.0330 cs         1 4MT       0.360200
     10 S10          4.1530    -1.4260     0.0240 s          1 4MT      -0.567400
     11 C11         -1.5870     0.5350    -1.2770 ca         1 4MT      -0.062000
     12 C12         -2.8710    -0.0390    -1.3000 ca         1 4MT      -0.173000
     13 H1          -5.0780    -1.0300     0.7880 ho         1 4MT       0.466000
     14 H2          -3.4140    -0.2900     2.0660 ha         1 4MT       0.123500
     15 H3          -1.1510     0.7210     2.1130 ha         1 4MT       0.113000
     16 H4           0.5740     2.0840    -0.8890 hc         1 4MT       0.049700
     17 H5           0.5450     2.0690     0.8670 hc         1 4MT       0.049700
     18 H6           1.4120    -0.2860     0.8720 h1         1 4MT       0.075700
     19 H7           1.4410    -0.2710    -0.9060 h1         1 4MT       0.075700
     20 H8           4.9330     0.9020     0.0530 h5         1 4MT       0.041200
     21 H10         -1.0820     0.7610    -2.2140 ha         1 4MT       0.113000
     22 H11         -3.3510    -0.2530    -2.2520 ha         1 4MT       0.123500
     23 H12          2.9490     1.9570     0.0250 hn         1 4MT       0.310500
@<TRIPOS>BOND
     1     1     2 1   
     2     1    13 1   
     3     2     3 ar  
     4     2    12 ar  
     5     3     4 ar  
     6     3    14 1   
     7     4     5 ar  
     8     4    15 1   
     9     5     6 1   
    10     5    11 ar  
    11     6     7 1   
    12     6    16 1   
    13     6    17 1   
    14     7     8 1   
    15     7    18 1   
    16     7    19 1   
    17     8     9 1   
    18     8    23 1   
    19     9    10 2   
    20     9    20 1   
    21    11    12 ar  
    22    11    21 1   
    23    12    22 1   
@<TRIPOS>SUBSTRUCTURE
     1 4MT         1 TEMP              0 ****  ****    0 ROOT
