@<TRIPOS>MOLECULE
4MU
   21    22     1     0     0
SMALL
abcg2


@<TRIPOS>ATOM
      1 C5          -1.1220    -1.6650     0.0290 ca         1 4MU      -0.017000
      2 C6          -2.3990    -1.1590     0.0780 ca         1 4MU      -0.175000
      3 C7          -2.5970     0.2290     0.1200 ca         1 4MU       0.194100
      4 C2           2.1010     1.0460     0.0170 c          1 4MU       0.676300
      5 C3           2.3590    -0.3710    -0.0340 cc         1 4MU      -0.345200
      6 C4           1.3640    -1.2870    -0.0330 cd         1 4MU       0.055600
      7 O2           2.9300     1.9230     0.0220 o          1 4MU      -0.486000
      8 O1           0.7960     1.4310     0.0650 os         1 4MU      -0.339200
      9 CM4          1.6550    -2.7490    -0.0880 c3         1 4MU      -0.065900
     10 C4A         -0.0000    -0.8240     0.0210 ca         1 4MU      -0.195800
     11 C8A         -0.2300     0.5520     0.0670 ca         1 4MU       0.219100
     12 C8          -1.5070     1.0880     0.1160 ca         1 4MU      -0.245000
     13 O3          -3.8600     0.6680     0.1630 oh         1 4MU      -0.523100
     14 H5          -0.9860    -2.7370    -0.0050 ha         1 4MU       0.121000
     15 H6          -3.2530    -1.8230     0.0810 ha         1 4MU       0.136000
     16 H3           3.3980    -0.6700    -0.0760 ha         1 4MU       0.212000
     17 HM4          2.7250    -2.9350    -0.1490 hc         1 4MU       0.054700
     18 HM4A         1.2690    -3.2560     0.7980 hc         1 4MU       0.054700
     19 HM4B         1.1770    -3.2090    -0.9540 hc         1 4MU       0.054700
     20 H8          -1.6380     2.1640     0.1490 ha         1 4MU       0.140000
     21 HO1         -3.8920     1.6320     0.1810 ho         1 4MU       0.475000
@<TRIPOS>BOND
     1     1     2 ar  
     2     1    10 ar  
     3     1    14 1   
     4     2     3 ar  
     5     2    15 1   
     6     3    12 ar  
     7     3    13 1   
     8     4     5 1   
     9     4     7 2   
    10     4     8 1   
    11     5     6 2   
    12     5    16 1   
    13     6     9 1   
    14     6    10 1   
    15     8    11 1   
    16     9    17 1   
    17     9    18 1   
    18     9    19 1   
    19    10    11 ar  
    20    11    12 ar  
    21    12    20 1   
    22    13    21 1   
@<TRIPOS>SUBSTRUCTURE
     1 4MU         1 TEMP              0 ****  ****    0 ROOT
