@<TRIPOS>MOLECULE
4MU
   21    22     1     0     0
SMALL
No Charge or Current Charge


@<TRIPOS>ATOM
      1 C5          -1.1310    -1.6830     0.0240 ca         1 4MU      -0.017000
      2 C6          -2.4360    -1.1640     0.0760 ca         1 4MU      -0.175000
      3 C7          -2.6450     0.2200     0.1220 ca         1 4MU       0.194100
      4 C2           2.1150     1.0780     0.0130 c          1 4MU       0.676300
      5 C3           2.3680    -0.3670    -0.0360 cc         1 4MU      -0.345200
      6 C4           1.3620    -1.3040    -0.0350 cd         1 4MU       0.055600
      7 O2           3.0200     1.8980     0.0110 o          1 4MU      -0.486000
      8 O1           0.8030     1.4590     0.0610 os         1 4MU      -0.339200
      9 CM4          1.6860    -2.7780    -0.0860 c3         1 4MU      -0.065900
     10 C4A         -0.0210    -0.8090     0.0180 ca         1 4MU      -0.195800
     11 C8A         -0.2470     0.5800     0.0650 ca         1 4MU       0.219100
     12 C8          -1.5510     1.0940     0.1160 ca         1 4MU      -0.245000
     13 O3          -3.9140     0.7100     0.1720 oh         1 4MU      -0.523100
     14 H5          -0.9960    -2.7620    -0.0110 ha         1 4MU       0.121000
     15 H6          -3.2870    -1.8400     0.0800 ha         1 4MU       0.136000
     16 H3           3.4140    -0.6440    -0.0730 ha         1 4MU       0.212000
     17 HM4          2.7670    -2.9560    -0.1220 hc         1 4MU       0.054700
     18 HM4A         1.2970    -3.2960     0.7980 hc         1 4MU       0.054700
     19 HM4B         1.2470    -3.2450    -0.9760 hc         1 4MU       0.054700
     20 H8          -1.6980     2.1690     0.1520 ha         1 4MU       0.140000
     21 HO1         -3.8650     1.6890     0.1980 ho         1 4MU       0.475000
@<TRIPOS>BOND
     1     1     2 ar  
     2     1    10 ar  
     3     1    14 1   
     4     2     3 ar  
     5     2    15 1   
     6     3    12 ar  
     7     3    13 1   
     8     4     5 1   
     9     4     7 2   
    10     4     8 1   
    11     5     6 2   
    12     5    16 1   
    13     6     9 1   
    14     6    10 1   
    15     8    11 1   
    16     9    17 1   
    17     9    18 1   
    18     9    19 1   
    19    10    11 ar  
    20    11    12 ar  
    21    12    20 1   
    22    13    21 1   
@<TRIPOS>SUBSTRUCTURE
     1 4MU         1 TEMP              0 ****  ****    0 ROOT
