@<TRIPOS>MOLECULE
4MV
   19    18     1     0     0
SMALL
No Charge or Current Charge


@<TRIPOS>ATOM
      1 CA           0.6290     0.1690    -0.6210 c3         1 4MV      -0.205400
      2 CB          -0.3940     0.0560     0.5410 c3         1 4MV      -0.052400
      3 CG           0.1890     0.3240     1.9570 c3         1 4MV      -0.068700
      4 CD1         -0.9340     0.3540     3.0190 c3         1 4MV      -0.080100
      5 CD2          1.2940    -0.6840     2.3580 c3         1 4MV      -0.080100
      6 C           -0.0930     0.0490    -1.9760 c          1 4MV       0.716000
      7 O           -0.2460    -1.0650    -2.4520 o          1 4MV      -0.744500
      8 OXT         -0.5240     1.0690    -2.4920 o          1 4MV      -0.744500
      9 HA1          1.0910     1.1580    -0.5210 hc         1 4MV       0.015200
     10 HA2          1.3310    -0.6640    -0.4960 hc         1 4MV       0.015200
     11 HB1         -0.8540    -0.9410     0.5200 hc         1 4MV       0.038700
     12 HB2         -1.2030     0.7740     0.3570 hc         1 4MV       0.038700
     13 HG           0.6450     1.3220     1.9450 hc         1 4MV       0.032700
     14 HD11        -0.5260     0.6010     4.0070 hc         1 4MV       0.019700
     15 HD12        -1.6860     1.1120     2.7680 hc         1 4MV       0.019700
     16 HD13        -1.4350    -0.6190     3.0870 hc         1 4MV       0.019700
     17 HD21         0.9160    -1.7130     2.3220 hc         1 4MV       0.019700
     18 HD22         2.1600    -0.6090     1.6900 hc         1 4MV       0.019700
     19 HD23         1.6470    -0.4840     3.3770 hc         1 4MV       0.019700
@<TRIPOS>BOND
     1     1     2 1   
     2     1     6 1   
     3     1     9 1   
     4     1    10 1   
     5     2     3 1   
     6     2    11 1   
     7     2    12 1   
     8     3     4 1   
     9     3     5 1   
    10     3    13 1   
    11     4    14 1   
    12     4    15 1   
    13     4    16 1   
    14     5    17 1   
    15     5    18 1   
    16     5    19 1   
    17     6     7 1   
    18     6     8 1   
@<TRIPOS>SUBSTRUCTURE
     1 4MV         1 TEMP              0 ****  ****    0 ROOT
