@<TRIPOS>MOLECULE
4MV
   19    18     1     0     0
SMALL
bcc


@<TRIPOS>ATOM
      1 CA           0.5140     0.2720    -0.5720 c3         1 4MV      -0.205400
      2 CB          -0.4330    -0.0270     0.5800 c3         1 4MV      -0.052400
      3 CG           0.1260     0.3160     1.9630 c3         1 4MV      -0.068700
      4 CD1         -0.9490     0.1350     3.0320 c3         1 4MV      -0.080100
      5 CD2          1.3640    -0.5060     2.3080 c3         1 4MV      -0.080100
      6 C           -0.0700     0.0970    -1.9860 c          1 4MV       0.926600
      7 O           -1.2440    -0.3080    -2.0910 o          1 4MV      -0.849800
      8 OXT          0.6980     0.3800    -2.9310 o          1 4MV      -0.849800
      9 HA1          0.8860     1.3000    -0.4820 hc         1 4MV       0.015200
     10 HA2          1.4080    -0.3570    -0.5070 hc         1 4MV       0.015200
     11 HB1         -0.7180    -1.0850     0.5660 hc         1 4MV       0.038700
     12 HB2         -1.3610     0.5330     0.4300 hc         1 4MV       0.038700
     13 HG           0.4160     1.3740     1.9550 hc         1 4MV       0.032700
     14 HD11        -0.5850     0.4260     4.0190 hc         1 4MV       0.019700
     15 HD12        -1.8320     0.7380     2.8120 hc         1 4MV       0.019700
     16 HD13        -1.2690    -0.9080     3.0920 hc         1 4MV       0.019700
     17 HD21         1.1340    -1.5750     2.3040 hc         1 4MV       0.019700
     18 HD22         2.1750    -0.3420     1.5970 hc         1 4MV       0.019700
     19 HD23         1.7440    -0.2540     3.3000 hc         1 4MV       0.019700
@<TRIPOS>BOND
     1     1     2 1   
     2     1     6 1   
     3     1     9 1   
     4     1    10 1   
     5     2     3 1   
     6     2    11 1   
     7     2    12 1   
     8     3     4 1   
     9     3     5 1   
    10     3    13 1   
    11     4    14 1   
    12     4    15 1   
    13     4    16 1   
    14     5    17 1   
    15     5    18 1   
    16     5    19 1   
    17     6     7 1   
    18     6     8 1   
@<TRIPOS>SUBSTRUCTURE
     1 4MV         1 TEMP              0 ****  ****    0 ROOT
