@<TRIPOS>MOLECULE
4MW
   92    98     1     0     0
SMALL
No Charge or Current Charge


@<TRIPOS>ATOM
      1 O6          -4.7850     0.8510     4.2260 o          1 4MW      -0.588100
      2 C19         -4.8610     1.4310     3.1520 c          1 4MW       0.602100
      3 C20         -6.1940     1.7330     2.4730 c3         1 4MW      -0.173400
      4 C21         -6.8190     0.4490     1.8640 c3         1 4MW       0.108200
      5 C35         -8.0960     0.7140     1.0760 cc         1 4MW       0.379800
      6 N6          -9.3250     0.6540     1.5710 nd         1 4MW      -0.327000
      7 N7         -10.2130     1.0430     0.5840 nd         1 4MW      -0.348000
      8 C36         -9.5210     1.3630    -0.5000 cc         1 4MW       0.409800
      9 C37        -10.1290     1.7740    -1.8130 c3         1 4MW      -0.130400
     10 N5          -8.2010     1.0630    -0.2540 na         1 4MW      -0.256800
     11 C30         -7.1670     1.8060    -0.8480 cc         1 4MW      -0.124200
     12 S           -7.3370     3.3920    -1.5680 ss         1 4MW       0.254000
     13 C31         -5.5850     3.4510    -1.7510 cc         1 4MW      -0.211300
     14 C32         -4.9330     4.6570    -2.3780 c3         1 4MW      -0.023800
     15 C33         -4.9620     2.3180    -1.2580 cd         1 4MW      -0.071300
     16 C34         -3.4610     2.1300    -1.2690 c3         1 4MW      -0.035800
     17 C29         -5.8780     1.3410    -0.7310 cd         1 4MW      -0.207900
     18 C22         -5.4920     0.0460    -0.1410 cf         1 4MW       0.551500
     19 C23         -4.6790    -0.9090    -0.9420 ca         1 4MW      -0.139900
     20 C28         -3.9090    -1.9200    -0.3180 ca         1 4MW      -0.068000
     21 C27         -3.1560    -2.8240    -1.0870 ca         1 4MW      -0.114500
     22 C26         -3.1740    -2.7420    -2.4860 ca         1 4MW       0.132000
     23 Cl          -2.2300    -3.8740    -3.4460 cl         1 4MW      -0.198000
     24 C25         -3.9510    -1.7620    -3.1210 ca         1 4MW      -0.114500
     25 C24         -4.7050    -0.8550    -2.3560 ca         1 4MW      -0.068000
     26 N4          -5.8230    -0.3020     1.0670 n2         1 4MW      -0.558900
     27 N3          -3.7530     1.8800     2.4680 ns         1 4MW      -0.510900
     28 C18         -2.3720     1.5370     2.8060 c3         1 4MW       0.104000
     29 C17         -2.0200     0.1120     2.3320 c3         1 4MW      -0.094400
     30 C16         -0.5570    -0.2850     2.6200 c3         1 4MW      -0.093400
     31 C15         -0.2220    -1.7070     2.1230 c3         1 4MW       0.105000
     32 N2           1.1620    -2.0840     2.4200 ns         1 4MW      -0.514900
     33 C            2.2660    -1.6660     1.7000 c          1 4MW       0.602100
     34 O            2.1580    -0.9440     0.7160 o          1 4MW      -0.551100
     35 C1           3.6170    -2.1860     2.2380 c3         1 4MW       0.070600
     36 O1           4.7360    -1.7190     1.4510 os         1 4MW      -0.284100
     37 C2           6.0380    -2.0640     1.7510 ca         1 4MW       0.207100
     38 C13          7.0800    -1.5810     0.9510 ca         1 4MW      -0.185600
     39 C6           8.4080    -1.9000     1.2100 ca         1 4MW      -0.097600
     40 C5           8.7670    -2.7200     2.2880 ca         1 4MW      -0.084000
     41 C4           7.7360    -3.2200     3.1100 ca         1 4MW      -0.053000
     42 C3           6.3820    -2.8960     2.8460 ca         1 4MW      -0.195000
     43 C14          7.0420    -0.7020    -0.2510 c          1 4MW       0.604600
     44 O5           6.0630    -0.2160    -0.7970 o          1 4MW      -0.460000
     45 N            8.3750    -0.5400    -0.6400 n          1 4MW      -0.389400
     46 C7           9.2630    -1.2340     0.1880 c          1 4MW       0.590600
     47 O4          10.4830    -1.2620     0.1030 o          1 4MW      -0.483000
     48 C8           8.7920     0.2470    -1.8370 c6         1 4MW       0.039700
     49 C12          9.1840     1.6940    -1.4420 c6         1 4MW      -0.085400
     50 C11          9.7340     2.4850    -2.6530 c6         1 4MW      -0.163400
     51 C10         10.7980     1.7210    -3.4490 c          1 4MW       0.581000
     52 O2          11.6950     2.2910    -4.0470 o          1 4MW      -0.512000
     53 N1          10.7300     0.3580    -3.4170 ns         1 4MW      -0.478500
     54 C9           9.8330    -0.4440    -2.7670 c          1 4MW       0.572000
     55 O3           9.8370    -1.6510    -2.9600 o          1 4MW      -0.501000
     56 H1          -6.8890     2.1300     3.2220 hc         1 4MW       0.071200
     57 H2          -6.0490     2.4800     1.6850 hc         1 4MW       0.071200
     58 H3          -7.1200    -0.1830     2.7120 h1         1 4MW       0.125700
     59 H4         -10.3090     2.8550    -1.8370 hc         1 4MW       0.065033
     60 H5          -9.4760     1.5100    -2.6520 hc         1 4MW       0.065033
     61 H6         -11.0900     1.2700    -1.9680 hc         1 4MW       0.065033
     62 H7          -5.6770     5.3290    -2.8220 hc         1 4MW       0.053033
     63 H8          -4.3690     5.2270    -1.6300 hc         1 4MW       0.053033
     64 H9          -4.2380     4.3590    -3.1720 hc         1 4MW       0.053033
     65 H10         -2.9390     3.0750    -1.0800 hc         1 4MW       0.051367
     66 H11         -3.1300     1.4230    -0.5020 hc         1 4MW       0.051367
     67 H12         -3.1240     1.7510    -2.2410 hc         1 4MW       0.051367
     68 H13         -3.8800    -2.0040     0.7670 ha         1 4MW       0.132000
     69 H14         -2.5590    -3.5890    -0.5970 ha         1 4MW       0.133000
     70 H15         -3.9720    -1.7060    -4.2060 ha         1 4MW       0.133000
     71 H16         -5.3080    -0.1080    -2.8690 ha         1 4MW       0.132000
     72 H17         -3.9270     2.3710     1.6000 hn         1 4MW       0.313500
     73 H18         -1.7030     2.2620     2.3230 h1         1 4MW       0.053700
     74 H19         -2.2320     1.6160     3.8930 h1         1 4MW       0.053700
     75 H20         -2.6910    -0.6060     2.8170 hc         1 4MW       0.047200
     76 H21         -2.2010     0.0400     1.2530 hc         1 4MW       0.047200
     77 H22          0.1140     0.4360     2.1390 hc         1 4MW       0.048700
     78 H23         -0.3720    -0.2280     3.7000 hc         1 4MW       0.048700
     79 H24         -0.8910    -2.4300     2.6080 h1         1 4MW       0.055700
     80 H25         -0.3880    -1.7690     1.0390 h1         1 4MW       0.055700
     81 H26          1.3370    -2.6840     3.2190 hn         1 4MW       0.312500
     82 H27          3.7100    -1.8500     3.2780 h1         1 4MW       0.052700
     83 H28          3.5730    -3.2830     2.2340 h1         1 4MW       0.052700
     84 H29          9.8090    -2.9650     2.4850 ha         1 4MW       0.144000
     85 H30          7.9840    -3.8600     3.9540 ha         1 4MW       0.123000
     86 H31          5.6180    -3.3010     3.5020 ha         1 4MW       0.121000
     87 H32          7.9170     0.3370    -2.4960 h1         1 4MW       0.103700
     88 H33          8.3210     2.2170    -1.0050 hc         1 4MW       0.071700
     89 H34          9.9550     1.6600    -0.6590 hc         1 4MW       0.071700
     90 H35          8.8960     2.6290    -3.3480 hc         1 4MW       0.082200
     91 H36         10.1050     3.4840    -2.3890 hc         1 4MW       0.082200
     92 H37         11.4190    -0.1230    -3.9750 hn         1 4MW       0.332500
@<TRIPOS>BOND
     1     1     2 2   
     2     2     3 1   
     3     2    27 1   
     4     3     4 1   
     5     3    56 1   
     6     3    57 1   
     7     4     5 1   
     8     4    26 1   
     9     4    58 1   
    10     5     6 2   
    11     5    10 1   
    12     6     7 1   
    13     7     8 2   
    14     8     9 1   
    15     8    10 1   
    16     9    59 1   
    17     9    60 1   
    18     9    61 1   
    19    10    11 1   
    20    11    12 1   
    21    11    17 2   
    22    12    13 1   
    23    13    14 1   
    24    13    15 2   
    25    14    62 1   
    26    14    63 1   
    27    14    64 1   
    28    15    16 1   
    29    15    17 1   
    30    16    65 1   
    31    16    66 1   
    32    16    67 1   
    33    17    18 1   
    34    18    19 1   
    35    18    26 2   
    36    19    20 ar  
    37    19    25 ar  
    38    20    21 ar  
    39    20    68 1   
    40    21    22 ar  
    41    21    69 1   
    42    22    23 1   
    43    22    24 ar  
    44    24    25 ar  
    45    24    70 1   
    46    25    71 1   
    47    27    28 1   
    48    27    72 1   
    49    28    29 1   
    50    28    73 1   
    51    28    74 1   
    52    29    30 1   
    53    29    75 1   
    54    29    76 1   
    55    30    31 1   
    56    30    77 1   
    57    30    78 1   
    58    31    32 1   
    59    31    79 1   
    60    31    80 1   
    61    32    33 1   
    62    32    81 1   
    63    33    34 2   
    64    33    35 1   
    65    35    36 1   
    66    35    82 1   
    67    35    83 1   
    68    36    37 1   
    69    37    38 ar  
    70    37    42 ar  
    71    38    39 ar  
    72    38    43 1   
    73    39    40 ar  
    74    39    46 1   
    75    40    41 ar  
    76    40    84 1   
    77    41    42 ar  
    78    41    85 1   
    79    42    86 1   
    80    43    44 2   
    81    43    45 1   
    82    45    46 1   
    83    45    48 1   
    84    46    47 2   
    85    48    49 1   
    86    48    54 1   
    87    48    87 1   
    88    49    50 1   
    89    49    88 1   
    90    49    89 1   
    91    50    51 1   
    92    50    90 1   
    93    50    91 1   
    94    51    52 2   
    95    51    53 1   
    96    53    54 1   
    97    53    92 1   
    98    54    55 2   
@<TRIPOS>SUBSTRUCTURE
     1 4MW         1 TEMP              0 ****  ****    0 ROOT
