@<TRIPOS>MOLECULE
4MW
   92    98     1     0     0
SMALL
abcg2


@<TRIPOS>ATOM
      1 O6          -5.3350     0.2860     3.8480 o          1 4MW      -0.588100
      2 C19         -5.1810     0.9760     2.8500 c          1 4MW       0.602100
      3 C20         -6.2620     1.9170     2.3570 c3         1 4MW      -0.173400
      4 C21         -7.5700     1.1340     2.1290 c3         1 4MW       0.108200
      5 C35         -8.5800     1.9150     1.3620 cc         1 4MW       0.379800
      6 N6          -9.7440     2.3200     1.7580 nd         1 4MW      -0.327000
      7 N7         -10.3500     2.9380     0.7100 nd         1 4MW      -0.348000
      8 C36         -9.5540     2.8940    -0.3170 cc         1 4MW       0.409800
      9 C37         -9.8370     3.4300    -1.6670 c3         1 4MW      -0.130400
     10 N5          -8.4030     2.2480     0.0450 na         1 4MW      -0.256800
     11 C30         -7.2550     1.9660    -0.6850 cc         1 4MW      -0.124200
     12 S           -6.5430     3.1020    -1.7500 ss         1 4MW       0.254000
     13 C31         -5.1890     2.0730    -2.0210 cc         1 4MW      -0.211300
     14 C32         -4.0960     2.4980    -2.9440 c3         1 4MW      -0.023800
     15 C33         -5.2800     0.9100    -1.3120 cd         1 4MW      -0.071300
     16 C34         -4.2070    -0.1340    -1.3310 c3         1 4MW      -0.035800
     17 C29         -6.4870     0.8430    -0.5390 cd         1 4MW      -0.207900
     18 C22         -6.8850    -0.2750     0.3370 cf         1 4MW       0.551500
     19 C23         -6.7200    -1.6480    -0.1920 ca         1 4MW      -0.139900
     20 C28         -6.3990    -2.6920     0.6740 ca         1 4MW      -0.068000
     21 C27         -6.2670    -3.9860     0.2030 ca         1 4MW      -0.114500
     22 C26         -6.4730    -4.2380    -1.1460 ca         1 4MW       0.132000
     23 CL          -6.3130    -5.8550    -1.7420 cl         1 4MW      -0.198000
     24 C25         -6.8020    -3.2190    -2.0250 ca         1 4MW      -0.114500
     25 C24         -6.9170    -1.9250    -1.5420 ca         1 4MW      -0.068000
     26 N4          -7.3920    -0.1640     1.5000 n2         1 4MW      -0.558900
     27 N3          -4.0710     0.9520     2.1000 ns         1 4MW      -0.510900
     28 C18         -2.9180     0.1260     2.3910 c3         1 4MW       0.104000
     29 C17         -1.6880     0.6680     1.6810 c3         1 4MW      -0.094400
     30 C16         -0.4520    -0.1740     1.9570 c3         1 4MW      -0.093400
     31 C15          0.7730     0.3950     1.2580 c3         1 4MW       0.105000
     32 N2           1.9500    -0.3910     1.5620 ns         1 4MW      -0.514900
     33 C            3.0460    -0.4040     0.7930 c          1 4MW       0.602100
     34 O            3.1770     0.2450    -0.2290 o          1 4MW      -0.551100
     35 C1           4.1170    -1.3690     1.2770 c3         1 4MW       0.070600
     36 O1           5.3510    -0.9040     0.7790 os         1 4MW      -0.284100
     37 C2           6.4480    -1.6220     1.0140 ca         1 4MW       0.207100
     38 C13          7.6580    -1.1520     0.5170 ca         1 4MW      -0.185600
     39 C6           8.8370    -1.8510     0.7300 ca         1 4MW      -0.097600
     40 C5           8.8870    -3.0340     1.4290 ca         1 4MW      -0.084000
     41 C4           7.6750    -3.5090     1.9280 ca         1 4MW      -0.053000
     42 C3           6.4820    -2.8270     1.7310 ca         1 4MW      -0.195000
     43 C14          7.9730     0.0590    -0.2670 c          1 4MW       0.604600
     44 O5           7.2440     0.9250    -0.6730 o          1 4MW      -0.460000
     45 N            9.3530     0.0260    -0.4720 n          1 4MW      -0.389400
     46 C7           9.9370    -1.0960     0.0870 c          1 4MW       0.590600
     47 O4          11.1100    -1.3680     0.0410 o          1 4MW      -0.483000
     48 C8          10.0820     1.0120    -1.2210 c6         1 4MW       0.039700
     49 C12         11.0270     1.8490    -0.3710 c6         1 4MW      -0.085400
     50 C11         11.7660     2.8310    -1.2630 c6         1 4MW      -0.163400
     51 C10         12.4690     2.1630    -2.4090 c          1 4MW       0.581000
     52 O2          13.4540     2.6080    -2.9500 o          1 4MW      -0.512000
     53 N1          11.9060     0.9830    -2.8600 ns         1 4MW      -0.478500
     54 C9          10.7870     0.3420    -2.3900 c          1 4MW       0.572000
     55 O3          10.3790    -0.6700    -2.9050 o          1 4MW      -0.501000
     56 H1          -6.4480     2.6680     3.1260 hc         1 4MW       0.071200
     57 H2          -5.9400     2.4530     1.4650 hc         1 4MW       0.071200
     58 H3          -8.0110     0.9470     3.1080 h1         1 4MW       0.125700
     59 H4          -9.2280     4.3060    -1.8970 hc         1 4MW       0.065033
     60 H5          -9.6580     2.6820    -2.4390 hc         1 4MW       0.065033
     61 H6         -10.8810     3.7310    -1.7150 hc         1 4MW       0.065033
     62 H7          -4.2910     3.4730    -3.3870 hc         1 4MW       0.053033
     63 H8          -3.1450     2.5640    -2.4130 hc         1 4MW       0.053033
     64 H9          -3.9720     1.7830    -3.7580 hc         1 4MW       0.053033
     65 H10         -3.2300     0.3180    -1.5060 hc         1 4MW       0.051367
     66 H11         -4.1540    -0.6780    -0.3900 hc         1 4MW       0.051367
     67 H12         -4.3680    -0.8700    -2.1200 hc         1 4MW       0.051367
     68 H13         -6.2360    -2.4870     1.7240 ha         1 4MW       0.132000
     69 H14         -6.0050    -4.7900     0.8790 ha         1 4MW       0.133000
     70 H15         -6.9670    -3.4260    -3.0730 ha         1 4MW       0.133000
     71 H16         -7.1730    -1.1300    -2.2320 ha         1 4MW       0.132000
     72 H17         -4.0170     1.5670     1.3050 hn         1 4MW       0.313500
     73 H18         -2.7510     0.1110     3.4700 h1         1 4MW       0.053700
     74 H19         -3.1040    -0.9080     2.0830 h1         1 4MW       0.053700
     75 H20         -1.8710     0.6980     0.6010 hc         1 4MW       0.047200
     76 H21         -1.5130     1.7000     1.9990 hc         1 4MW       0.047200
     77 H22         -0.2730    -0.2120     3.0360 hc         1 4MW       0.048700
     78 H23         -0.6160    -1.2030     1.6250 hc         1 4MW       0.048700
     79 H24          0.6200     0.3960     0.1780 h1         1 4MW       0.055700
     80 H25          0.9220     1.4360     1.5610 h1         1 4MW       0.055700
     81 H26          1.9660    -0.8870     2.4390 hn         1 4MW       0.312500
     82 H27          4.1300    -1.4290     2.3700 h1         1 4MW       0.052700
     83 H28          3.8840    -2.3670     0.8900 h1         1 4MW       0.052700
     84 H29          9.8120    -3.5690     1.5860 ha         1 4MW       0.144000
     85 H30          7.6530    -4.4340     2.4880 ha         1 4MW       0.123000
     86 H31          5.5780    -3.2480     2.1470 ha         1 4MW       0.121000
     87 H32          9.3380     1.6800    -1.6710 h1         1 4MW       0.103700
     88 H33         10.4540     2.3900     0.3810 hc         1 4MW       0.071700
     89 H34         11.7390     1.2090     0.1530 hc         1 4MW       0.071700
     90 H35         11.0660     3.5540    -1.6950 hc         1 4MW       0.082200
     91 H36         12.4990     3.4050    -0.6990 hc         1 4MW       0.082200
     92 H37         12.3640     0.5460    -3.6540 hn         1 4MW       0.332500
@<TRIPOS>BOND
     1     1     2 2   
     2     2     3 1   
     3     2    27 1   
     4     3     4 1   
     5     3    56 1   
     6     3    57 1   
     7     4     5 1   
     8     4    26 1   
     9     4    58 1   
    10     5     6 2   
    11     5    10 1   
    12     6     7 1   
    13     7     8 2   
    14     8     9 1   
    15     8    10 1   
    16     9    59 1   
    17     9    60 1   
    18     9    61 1   
    19    10    11 1   
    20    11    12 1   
    21    11    17 2   
    22    12    13 1   
    23    13    14 1   
    24    13    15 2   
    25    14    62 1   
    26    14    63 1   
    27    14    64 1   
    28    15    16 1   
    29    15    17 1   
    30    16    65 1   
    31    16    66 1   
    32    16    67 1   
    33    17    18 1   
    34    18    19 1   
    35    18    26 2   
    36    19    20 ar  
    37    19    25 ar  
    38    20    21 ar  
    39    20    68 1   
    40    21    22 ar  
    41    21    69 1   
    42    22    23 1   
    43    22    24 ar  
    44    24    25 ar  
    45    24    70 1   
    46    25    71 1   
    47    27    28 1   
    48    27    72 1   
    49    28    29 1   
    50    28    73 1   
    51    28    74 1   
    52    29    30 1   
    53    29    75 1   
    54    29    76 1   
    55    30    31 1   
    56    30    77 1   
    57    30    78 1   
    58    31    32 1   
    59    31    79 1   
    60    31    80 1   
    61    32    33 1   
    62    32    81 1   
    63    33    34 2   
    64    33    35 1   
    65    35    36 1   
    66    35    82 1   
    67    35    83 1   
    68    36    37 1   
    69    37    38 ar  
    70    37    42 ar  
    71    38    39 ar  
    72    38    43 1   
    73    39    40 ar  
    74    39    46 1   
    75    40    41 ar  
    76    40    84 1   
    77    41    42 ar  
    78    41    85 1   
    79    42    86 1   
    80    43    44 2   
    81    43    45 1   
    82    45    46 1   
    83    45    48 1   
    84    46    47 2   
    85    48    49 1   
    86    48    54 1   
    87    48    87 1   
    88    49    50 1   
    89    49    88 1   
    90    49    89 1   
    91    50    51 1   
    92    50    90 1   
    93    50    91 1   
    94    51    52 2   
    95    51    53 1   
    96    53    54 1   
    97    53    92 1   
    98    54    55 2   
@<TRIPOS>SUBSTRUCTURE
     1 4MW         1 TEMP              0 ****  ****    0 ROOT
