@<TRIPOS>MOLECULE
4MX
   31    31     1     0     0
SMALL
No Charge or Current Charge


@<TRIPOS>ATOM
      1 C1          -4.5080    -0.8430    -0.7130 c3         1 4MX      -0.074400
      2 O1          -0.4060     2.3970    -0.3820 o          1 4MX      -0.689000
      3 O2           3.3640     1.7000    -0.7130 oh         1 4MX      -0.652100
      4 C2          -3.4370    -0.5540     0.3610 c3         1 4MX      -0.074400
      5 C3          -1.9960    -0.6040    -0.1930 c3         1 4MX      -0.064400
      6 C4          -0.9210    -0.3190     0.8810 c3         1 4MX      -0.028100
      7 C5           0.5020    -0.3760     0.3190 ca         1 4MX       0.040700
      8 C6           1.0860    -1.6500     0.1630 ca         1 4MX      -0.305000
      9 C7           2.3950    -1.7870    -0.3020 ca         1 4MX       0.162100
     10 C8           3.1530    -0.6560    -0.6020 ca         1 4MX      -0.257000
     11 C9           2.5930     0.6140    -0.4490 ca         1 4MX       0.251100
     12 C10          1.2630     0.7800    -0.0120 ca         1 4MX      -0.293600
     13 C11          0.6990     2.1740     0.0830 c          1 4MX       0.725600
     14 O            1.4630     3.0570     0.4510 o          1 4MX      -0.689000
     15 O3           2.9360    -3.0240    -0.4440 oh         1 4MX      -0.555100
     16 C           -5.9460    -0.7940    -0.1610 c3         1 4MX      -0.086100
     17 H1          -4.4140    -0.1140    -1.5270 hc         1 4MX       0.035700
     18 H2          -4.3280    -1.8340    -1.1490 hc         1 4MX       0.035700
     19 H4           2.8470     2.4600    -0.3250 ho         1 4MX       0.553000
     20 H5          -3.6210     0.4370     0.7950 hc         1 4MX       0.031200
     21 H6          -3.5360    -1.2840     1.1740 hc         1 4MX       0.031200
     22 H7          -1.8120    -1.5930    -0.6290 hc         1 4MX       0.042200
     23 H8          -1.8960     0.1240    -1.0070 hc         1 4MX       0.042200
     24 H9          -1.1240     0.6440     1.3640 hc         1 4MX       0.049700
     25 H10         -1.0240    -1.0640     1.6790 hc         1 4MX       0.049700
     26 H11          0.5080    -2.5360     0.4130 ha         1 4MX       0.086000
     27 H12          4.1770    -0.7620    -0.9460 ha         1 4MX       0.117000
     28 H13          2.2550    -3.6770    -0.1800 ho         1 4MX       0.445000
     29 H14         -6.6680    -1.0050    -0.9570 hc         1 4MX       0.023367
     30 H15         -6.0820    -1.5380     0.6330 hc         1 4MX       0.023367
     31 H16         -6.1690     0.1980     0.2510 hc         1 4MX       0.023367
@<TRIPOS>BOND
     1     1     4 1   
     2     1    16 1   
     3     1    17 1   
     4     1    18 1   
     5     2    13 1   
     6     3    11 1   
     7     3    19 1   
     8     4     5 1   
     9     4    20 1   
    10     4    21 1   
    11     5     6 1   
    12     5    22 1   
    13     5    23 1   
    14     6     7 1   
    15     6    24 1   
    16     6    25 1   
    17     7     8 ar  
    18     7    12 ar  
    19     8     9 ar  
    20     8    26 1   
    21     9    10 ar  
    22     9    15 1   
    23    10    11 ar  
    24    10    27 1   
    25    11    12 ar  
    26    12    13 1   
    27    13    14 1   
    28    15    28 1   
    29    16    29 1   
    30    16    30 1   
    31    16    31 1   
@<TRIPOS>SUBSTRUCTURE
     1 4MX         1 TEMP              0 ****  ****    0 ROOT
