@<TRIPOS>MOLECULE
4MX
   31    31     1     0     0
SMALL
abcg2


@<TRIPOS>ATOM
      1 C1          -4.4620    -0.7210    -0.7580 c3         1 4MX      -0.074400
      2 O1          -0.5250     2.4100     0.3050 o          1 4MX      -0.689000
      3 O2           3.3150     1.6460    -0.7250 oh         1 4MX      -0.652100
      4 C2          -3.3850    -0.7020     0.3180 c3         1 4MX      -0.074400
      5 C3          -1.9640    -0.6170    -0.2290 c3         1 4MX      -0.064400
      6 C4          -0.9440    -0.3610     0.8800 c3         1 4MX      -0.028100
      7 C5           0.4780    -0.3660     0.3750 ca         1 4MX       0.040700
      8 C6           1.0620    -1.6250     0.2790 ca         1 4MX      -0.305000
      9 C7           2.3610    -1.7800    -0.1910 ca         1 4MX       0.162100
     10 C8           3.1070    -0.6700    -0.5460 ca         1 4MX      -0.257000
     11 C9           2.5520     0.6030    -0.4230 ca         1 4MX       0.251100
     12 C10          1.2060     0.7800     0.0040 ca         1 4MX      -0.293600
     13 C11          0.6520     2.1820     0.0190 c          1 4MX       0.725600
     14 O            1.4790     3.1050    -0.3020 o          1 4MX      -0.689000
     15 O3           2.9430    -2.9900    -0.2990 oh         1 4MX      -0.555100
     16 C           -5.8700    -0.7340    -0.1760 c3         1 4MX      -0.086100
     17 H1          -4.3400     0.1490    -1.4100 hc         1 4MX       0.035700
     18 H2          -4.3240    -1.6000    -1.3960 hc         1 4MX       0.035700
     19 H4           2.6590     2.4560    -0.5990 ho         1 4MX       0.553000
     20 H5          -3.5610     0.1410     0.9960 hc         1 4MX       0.031200
     21 H6          -3.4740    -1.6050     0.9320 hc         1 4MX       0.031200
     22 H7          -1.7160    -1.5530    -0.7390 hc         1 4MX       0.042200
     23 H8          -1.8940     0.1760    -0.9800 hc         1 4MX       0.042200
     24 H9          -1.1880     0.5750     1.3720 hc         1 4MX       0.049700
     25 H10         -1.0370    -1.1550     1.6270 hc         1 4MX       0.049700
     26 H11          0.4870    -2.4990     0.5680 ha         1 4MX       0.086000
     27 H12          4.1290    -0.7800    -0.8890 ha         1 4MX       0.117000
     28 H13          2.3110    -3.6820    -0.0760 ho         1 4MX       0.445000
     29 H14         -6.6290    -0.7310    -0.9580 hc         1 4MX       0.023367
     30 H15         -6.0330    -1.6200     0.4410 hc         1 4MX       0.023367
     31 H16         -6.0420     0.1400     0.4560 hc         1 4MX       0.023367
@<TRIPOS>BOND
     1     1     4 1   
     2     1    16 1   
     3     1    17 1   
     4     1    18 1   
     5     2    13 1   
     6     3    11 1   
     7     3    19 1   
     8     4     5 1   
     9     4    20 1   
    10     4    21 1   
    11     5     6 1   
    12     5    22 1   
    13     5    23 1   
    14     6     7 1   
    15     6    24 1   
    16     6    25 1   
    17     7     8 ar  
    18     7    12 ar  
    19     8     9 ar  
    20     8    26 1   
    21     9    10 ar  
    22     9    15 1   
    23    10    11 ar  
    24    10    27 1   
    25    11    12 ar  
    26    12    13 1   
    27    13    14 1   
    28    15    28 1   
    29    16    29 1   
    30    16    30 1   
    31    16    31 1   
@<TRIPOS>SUBSTRUCTURE
     1 4MX         1 TEMP              0 ****  ****    0 ROOT
