@<TRIPOS>MOLECULE
4MY
   36    36     1     0     0
SMALL
No Charge or Current Charge


@<TRIPOS>ATOM
      1 C1           0.6690     2.3390    -0.5240 c6         1 4MY       0.092800
      2 C2          -0.7710     2.3760     0.0600 c6         1 4MY       0.092800
      3 C3          -1.5310     1.0340    -0.2380 c6         1 4MY       0.235800
      4 C4          -0.7210    -0.2040     0.3110 c6         1 4MY       0.244800
      5 C5           0.7160    -0.2140    -0.3510 c6         1 4MY       0.244800
      6 C6           1.4790     1.1130     0.0390 c6         1 4MY       0.235800
      7 O11          1.3130     3.6130    -0.3110 oh         1 4MY      -0.641000
      8 O12         -0.7280     2.6900     1.4670 oh         1 4MY      -0.641000
      9 O13         -2.9040     1.0740     0.2370 os         1 4MY      -0.559900
     10 O14         -1.4440    -1.4480     0.0990 os         1 4MY      -0.539900
     11 O15          1.4770    -1.4140    -0.0490 os         1 4MY      -0.539900
     12 O16          2.8610     1.1490    -0.4110 os         1 4MY      -0.559900
     13 O23         -3.8130     3.2000    -0.8760 o          1 4MY      -0.978500
     14 O24         -2.6220    -3.5500     0.8770 o          1 4MY      -0.975833
     15 O25          2.6970    -3.5410    -0.7030 o          1 4MY      -0.975833
     16 O26          4.0730     0.1960     1.6380 o          1 4MY      -0.978500
     17 O33         -4.1280     1.0680    -1.9980 o          1 4MY      -0.978500
     18 O34         -0.7220    -2.7900     2.1650 o          1 4MY      -0.975833
     19 O35          0.7460    -2.9270    -1.9890 o          1 4MY      -0.975833
     20 O36          5.3610     1.3310    -0.0650 o          1 4MY      -0.978500
     21 O43         -5.3710     1.5850     0.0090 o          1 4MY      -0.978500
     22 O44         -2.8190    -1.5860     2.2630 o          1 4MY      -0.975833
     23 O45          2.8010    -1.6760    -2.2340 o          1 4MY      -0.975833
     24 O46          3.9410     2.6040     1.4100 o          1 4MY      -0.978500
     25 H1           0.5700     2.1880    -1.6090 h1         1 4MY      -0.002300
     26 H2          -1.2910     3.1880    -0.4630 h1         1 4MY      -0.002300
     27 H3          -1.5620     0.9240    -1.3320 h1         1 4MY       0.018700
     28 H4          -0.5830    -0.0630     1.3930 h1         1 4MY      -0.001300
     29 H5           0.5590    -0.1780    -1.4390 h1         1 4MY      -0.001300
     30 H6           1.4740     1.1800     1.1370 h1         1 4MY       0.018700
     31 HO11         0.8220     4.2710    -0.8450 ho         1 4MY       0.346000
     32 HO12        -0.0220     3.3620     1.5600 ho         1 4MY       0.346000
     33 P3          -4.0570     1.7460    -0.6730 p5         1 4MY       1.326900
     34 P4          -1.8990    -2.3420     1.3690 p5         1 4MY       1.343400
     35 P5           1.9290    -2.3900    -1.2590 p5         1 4MY       1.343400
     36 P6           4.0600     1.3210     0.6620 p5         1 4MY       1.326900
@<TRIPOS>BOND
     1     1     2 1   
     2     1     6 1   
     3     1     7 1   
     4     1    25 1   
     5     2     3 1   
     6     2     8 1   
     7     2    26 1   
     8     3     4 1   
     9     3     9 1   
    10     3    27 1   
    11     4     5 1   
    12     4    10 1   
    13     4    28 1   
    14     5     6 1   
    15     5    11 1   
    16     5    29 1   
    17     6    12 1   
    18     6    30 1   
    19     7    31 1   
    20     8    32 1   
    21     9    33 1   
    22    10    34 1   
    23    11    35 1   
    24    12    36 1   
    25    13    33 1   
    26    14    34 1   
    27    15    35 1   
    28    16    36 1   
    29    17    33 1   
    30    18    34 1   
    31    19    35 1   
    32    20    36 1   
    33    21    33 1   
    34    22    34 1   
    35    23    35 1   
    36    24    36 1   
@<TRIPOS>SUBSTRUCTURE
     1 4MY         1 TEMP              0 ****  ****    0 ROOT
