@<TRIPOS>MOLECULE
4MY
   36    36     1     0     0
SMALL
bcc


@<TRIPOS>ATOM
      1 C1           0.6510     2.2970    -0.5110 c6         1 4MY       0.069600
      2 C2          -0.7760     2.3410     0.0220 c6         1 4MY       0.069600
      3 C3          -1.5010     1.0310    -0.2580 c6         1 4MY       0.212600
      4 C4          -0.7190    -0.1620     0.3170 c6         1 4MY       0.221600
      5 C5           0.6880    -0.1810    -0.3260 c6         1 4MY       0.221600
      6 C6           1.4410     1.1140     0.0440 c6         1 4MY       0.212600
      7 O11          1.3150     3.5110    -0.2050 oh         1 4MY      -0.578800
      8 O12         -0.7840     2.6030     1.4150 oh         1 4MY      -0.578800
      9 O13         -2.8130     1.0550     0.2160 os         1 4MY      -0.536700
     10 O14         -1.4050    -1.3390     0.0520 os         1 4MY      -0.516700
     11 O15          1.4080    -1.2900     0.0860 os         1 4MY      -0.516700
     12 O16          2.7310     1.1410    -0.4780 os         1 4MY      -0.536700
     13 O23         -3.7530     3.2990    -0.6550 o          1 4MY      -0.978500
     14 O24         -2.8610    -3.2860     0.5100 o          1 4MY      -0.975833
     15 O25          2.7580    -3.3710    -0.1360 o          1 4MY      -0.975833
     16 O26          4.4100    -0.0580     1.0910 o          1 4MY      -0.978500
     17 O33         -3.9070     1.2020    -2.1070 o          1 4MY      -0.978500
     18 O34         -0.7190    -3.0310     1.9000 o          1 4MY      -0.975833
     19 O35          0.7210    -3.0760    -1.6650 o          1 4MY      -0.975833
     20 O36          5.1140     1.8270    -0.4950 o          1 4MY      -0.978500
     21 O43         -5.2750     1.3730     0.0650 o          1 4MY      -0.978500
     22 O44         -2.6640    -1.4550     2.3010 o          1 4MY      -0.975833
     23 O45          2.7880    -1.6740    -2.0650 o          1 4MY      -0.975833
     24 O46          3.7010     2.3330     1.5930 o          1 4MY      -0.978500
     25 H1           0.5900     2.1690    -1.6050 h1         1 4MY      -0.002300
     26 H2          -1.3180     3.1390    -0.5040 h1         1 4MY      -0.002300
     27 H3          -1.4990     0.9100    -1.3550 h1         1 4MY       0.018700
     28 H4          -0.5960    -0.0090     1.4000 h1         1 4MY      -0.001300
     29 H5           0.5510    -0.1840    -1.4220 h1         1 4MY      -0.001300
     30 H6           1.4580     1.1940     1.1410 h1         1 4MY       0.018700
     31 HO11         0.8590     4.2080    -0.6890 ho         1 4MY       0.307000
     32 HO12        -0.1040     3.2680     1.5690 ho         1 4MY       0.307000
     33 P3          -4.0240     1.7920    -0.7010 p5         1 4MY       1.326900
     34 P4          -1.9390    -2.3460     1.2910 p5         1 4MY       1.343400
     35 P5           1.9510    -2.4290    -1.0280 p5         1 4MY       1.343400
     36 P6           4.0850     1.3170     0.5180 p5         1 4MY       1.326900
@<TRIPOS>BOND
     1     1     2 1   
     2     1     6 1   
     3     1     7 1   
     4     1    25 1   
     5     2     3 1   
     6     2     8 1   
     7     2    26 1   
     8     3     4 1   
     9     3     9 1   
    10     3    27 1   
    11     4     5 1   
    12     4    10 1   
    13     4    28 1   
    14     5     6 1   
    15     5    11 1   
    16     5    29 1   
    17     6    12 1   
    18     6    30 1   
    19     7    31 1   
    20     8    32 1   
    21     9    33 1   
    22    10    34 1   
    23    11    35 1   
    24    12    36 1   
    25    13    33 1   
    26    14    34 1   
    27    15    35 1   
    28    16    36 1   
    29    17    33 1   
    30    18    34 1   
    31    19    35 1   
    32    20    36 1   
    33    21    33 1   
    34    22    34 1   
    35    23    35 1   
    36    24    36 1   
@<TRIPOS>SUBSTRUCTURE
     1 4MY         1 TEMP              0 ****  ****    0 ROOT
