@<TRIPOS>MOLECULE
4MZ
   12    12     1     0     0
SMALL
No Charge or Current Charge


@<TRIPOS>ATOM
      1 CG           0.0480     0.0130     0.6830 cc         1 4MZ       0.248300
      2 ND1         -1.1000     0.1150    -0.0480 nc         1 4MZ      -0.677000
      3 CD2          1.1450    -0.0850    -0.1270 cd         1 4MZ      -0.235000
      4 CE1         -0.7350     0.0820    -1.3230 cd         1 4MZ       0.389400
      5 NE2          0.6390    -0.0400    -1.4170 na         1 4MZ      -0.303500
      6 C4           0.0100     0.0160     2.1840 c3         1 4MZ      -0.107400
      7 HD2          2.1990    -0.1780     0.1130 h4         1 4MZ       0.155000
      8 HE1         -1.3790     0.1390    -2.1940 h5         1 4MZ       0.053100
      9 HE2          1.1610    -0.0860    -2.2850 hn         1 4MZ       0.350000
     10 H41         -0.4290     0.9470     2.5610 hc         1 4MZ       0.042033
     11 H42         -0.5870    -0.8220     2.5610 hc         1 4MZ       0.042033
     12 H43          1.0200    -0.0730     2.6010 hc         1 4MZ       0.042033
@<TRIPOS>BOND
     1     1     2 1   
     2     1     3 2   
     3     1     6 1   
     4     2     4 2   
     5     3     5 1   
     6     3     7 1   
     7     4     5 1   
     8     4     8 1   
     9     5     9 1   
    10     6    10 1   
    11     6    11 1   
    12     6    12 1   
@<TRIPOS>SUBSTRUCTURE
     1 4MZ         1 TEMP              0 ****  ****    0 ROOT
