@<TRIPOS>MOLECULE
4MZ
   12    12     1     0     0
SMALL
bcc


@<TRIPOS>ATOM
      1 CG           0.0390     0.0130     0.6900 cc         1 4MZ       0.313600
      2 ND1         -1.1010     0.1080    -0.0640 nc         1 4MZ      -0.677000
      3 CD2          1.1270    -0.0770    -0.1350 cd         1 4MZ      -0.267600
      4 CE1         -0.7090     0.0750    -1.3120 cd         1 4MZ       0.389400
      5 NE2          0.6280    -0.0350    -1.4070 na         1 4MZ      -0.303900
      6 C4           0.0090     0.0160     2.1790 c3         1 4MZ      -0.107400
      7 HD2          2.1800    -0.1630     0.0690 h4         1 4MZ       0.173000
      8 HE1         -1.3480     0.1290    -2.1800 h5         1 4MZ       0.053100
      9 HE2          1.1630    -0.0850    -2.2590 hn         1 4MZ       0.299700
     10 H41         -0.4090     0.9440     2.5700 hc         1 4MZ       0.042033
     11 H42         -0.6000    -0.8020     2.5680 hc         1 4MZ       0.042033
     12 H43          1.0130    -0.0950     2.5890 hc         1 4MZ       0.042033
@<TRIPOS>BOND
     1     1     2 1   
     2     1     3 2   
     3     1     6 1   
     4     2     4 2   
     5     3     5 1   
     6     3     7 1   
     7     4     5 1   
     8     4     8 1   
     9     5     9 1   
    10     6    10 1   
    11     6    11 1   
    12     6    12 1   
@<TRIPOS>SUBSTRUCTURE
     1 4MZ         1 TEMP              0 ****  ****    0 ROOT
