@<TRIPOS>MOLECULE
4N0
   34    36     1     0     0
SMALL
abcg2


@<TRIPOS>ATOM
      1 C02         11.8180    -1.6760    23.1580 ca         1 4N0       0.166000
      2 C03         10.7000    -2.0430    23.8930 ca         1 4N0      -0.051500
      3 C04          9.4590    -2.0570    23.2810 ca         1 4N0      -0.154500
      4 C05          9.3130    -1.7100    21.9360 ca         1 4N0      -0.003000
      5 C07          7.5690    -1.3410    20.2020 c          1 4N0       0.608100
      6 C09          6.0540    -1.4210    20.0470 c6         1 4N0      -0.083400
      7 C10          5.6740    -1.6590    18.5920 c6         1 4N0      -0.148400
      8 C11          5.9170    -0.4670    17.7030 c          1 4N0       0.590000
      9 C14          5.3300     0.9280    19.6210 ca         1 4N0       0.014000
     10 C15          4.8410     2.1600    20.0440 ca         1 4N0      -0.160000
     11 C16          4.4890     2.3490    21.3710 ca         1 4N0      -0.064000
     12 C17          4.6070     1.3090    22.2830 ca         1 4N0      -0.139000
     13 C18          5.0930     0.0820    21.8550 ca         1 4N0      -0.068000
     14 C19          5.4650    -0.1190    20.5340 ca         1 4N0      -0.147300
     15 C20         10.4470    -1.3500    21.2070 ca         1 4N0      -0.154500
     16 C21         11.6920    -1.3330    21.8220 ca         1 4N0      -0.051500
     17 I01         13.7090    -1.6470    24.0750 i          1 4N0      -0.312000
     18 N06          8.0210    -1.7590    21.4110 ns         1 4N0      -0.142000
     19 N13          5.6910     0.7400    18.2890 ns         1 4N0      -0.147000
     20 O08          8.2770    -0.9010    19.3160 o          1 4N0      -0.560100
     21 O12          6.2210    -0.5590    16.5300 o          1 4N0      -0.526000
     22 H1          10.7770    -2.3160    24.9370 ha         1 4N0       0.128000
     23 H2           8.5910    -2.3410    23.8640 ha         1 4N0       0.132000
     24 H3           5.6640    -2.2430    20.6530 hc         1 4N0       0.069700
     25 H4           4.6020    -1.8770    18.5480 hc         1 4N0       0.082200
     26 H5           6.1910    -2.5230    18.1770 hc         1 4N0       0.082200
     27 H6           4.7350     2.9700    19.3310 ha         1 4N0       0.121000
     28 H7           4.1110     3.3120    21.6890 ha         1 4N0       0.119000
     29 H8           4.3230     1.4500    23.3170 ha         1 4N0       0.120000
     30 H9           5.1870    -0.7370    22.5600 ha         1 4N0       0.106000
     31 H10         10.3800    -1.0830    20.1660 ha         1 4N0       0.132000
     32 H11         12.5550    -1.0490    21.2350 ha         1 4N0       0.128000
     33 H12          7.3210    -2.1130    22.0460 hn         1 4N0       0.150000
     34 H13          5.7490     1.5550    17.6940 hn         1 4N0       0.163000
@<TRIPOS>BOND
     1     1     2 ar  
     2     1    16 ar  
     3     1    17 1   
     4     2     3 ar  
     5     2    22 1   
     6     3     4 ar  
     7     3    23 1   
     8     4    15 ar  
     9     4    18 1   
    10     5     6 1   
    11     5    18 1   
    12     5    20 2   
    13     6     7 1   
    14     6    14 1   
    15     6    24 1   
    16     7     8 1   
    17     7    25 1   
    18     7    26 1   
    19     8    19 1   
    20     8    21 2   
    21     9    10 ar  
    22     9    14 ar  
    23     9    19 1   
    24    10    11 ar  
    25    10    27 1   
    26    11    12 ar  
    27    11    28 1   
    28    12    13 ar  
    29    12    29 1   
    30    13    14 ar  
    31    13    30 1   
    32    15    16 ar  
    33    15    31 1   
    34    16    32 1   
    35    18    33 1   
    36    19    34 1   
@<TRIPOS>SUBSTRUCTURE
     1 4N0         1 TEMP              0 ****  ****    0 ROOT
