@<TRIPOS>MOLECULE
4N0
   34    36     1     0     0
SMALL
No Charge or Current Charge


@<TRIPOS>ATOM
      1 C02         12.1820    -2.3550    22.9900 ca         1 4N0       0.166000
      2 C03         11.1270    -3.2000    23.3680 ca         1 4N0      -0.051500
      3 C04          9.8300    -2.9670    22.8760 ca         1 4N0      -0.154500
      4 C05          9.5730    -1.8880    22.0070 ca         1 4N0      -0.003000
      5 C07          7.6250    -0.7130    20.8090 c          1 4N0       0.608100
      6 C09          6.1180    -0.9500    20.5260 c6         1 4N0      -0.083400
      7 C10          5.9140    -1.7390    19.1960 c6         1 4N0      -0.148400
      8 C11          5.8290    -0.8410    17.9500 c          1 4N0       0.590000
      9 C14          4.9280     0.9930    19.3820 ca         1 4N0       0.014000
     10 C15          4.2160     2.2040    19.4190 ca         1 4N0      -0.160000
     11 C16          3.8660     2.7740    20.6550 ca         1 4N0      -0.064000
     12 C17          4.2320     2.1330    21.8520 ca         1 4N0      -0.139000
     13 C18          4.9510     0.9260    21.8150 ca         1 4N0      -0.068000
     14 C19          5.3010     0.3510    20.5790 ca         1 4N0      -0.147300
     15 C20         10.6440    -1.0470    21.6270 ca         1 4N0      -0.154500
     16 C21         11.9420    -1.2820    22.1190 ca         1 4N0      -0.051500
     17 I01         14.1800    -2.7120    23.7450 i          1 4N0      -0.312000
     18 N06          8.2390    -1.7180    21.5470 ns         1 4N0      -0.142000
     19 N13          5.2820     0.4100    18.1490 ns         1 4N0      -0.147000
     20 O08          8.1880     0.3150    20.4500 o          1 4N0      -0.560100
     21 O12          6.2450    -1.2060    16.8580 o          1 4N0      -0.526000
     22 H1          11.3160    -4.0330    24.0400 ha         1 4N0       0.128000
     23 H2           9.0210    -3.6300    23.1770 ha         1 4N0       0.132000
     24 H3           5.7700    -1.6410    21.3070 hc         1 4N0       0.069700
     25 H4           4.9170    -2.1940    19.2710 hc         1 4N0       0.082200
     26 H5           6.6310    -2.5560    19.0400 hc         1 4N0       0.082200
     27 H6           3.9310     2.7020    18.4950 ha         1 4N0       0.121000
     28 H7           3.3120     3.7110    20.6860 ha         1 4N0       0.119000
     29 H8           3.9620     2.5750    22.8080 ha         1 4N0       0.120000
     30 H9           5.2370     0.4420    22.7460 ha         1 4N0       0.106000
     31 H10         10.4980    -0.2140    20.9470 ha         1 4N0       0.132000
     32 H11         12.7620    -0.6330    21.8250 ha         1 4N0       0.128000
     33 H12          7.6220    -2.4800    21.7990 hn         1 4N0       0.150000
     34 H13          5.1830     0.9940    17.3290 hn         1 4N0       0.163000
@<TRIPOS>BOND
     1     1     2 ar  
     2     1    16 ar  
     3     1    17 1   
     4     2     3 ar  
     5     2    22 1   
     6     3     4 ar  
     7     3    23 1   
     8     4    15 ar  
     9     4    18 1   
    10     5     6 1   
    11     5    18 1   
    12     5    20 2   
    13     6     7 1   
    14     6    14 1   
    15     6    24 1   
    16     7     8 1   
    17     7    25 1   
    18     7    26 1   
    19     8    19 1   
    20     8    21 2   
    21     9    10 ar  
    22     9    14 ar  
    23     9    19 1   
    24    10    11 ar  
    25    10    27 1   
    26    11    12 ar  
    27    11    28 1   
    28    12    13 ar  
    29    12    29 1   
    30    13    14 ar  
    31    13    30 1   
    32    15    16 ar  
    33    15    31 1   
    34    16    32 1   
    35    18    33 1   
    36    19    34 1   
@<TRIPOS>SUBSTRUCTURE
     1 4N0         1 TEMP              0 ****  ****    0 ROOT
