@<TRIPOS>MOLECULE
4N1
   42    44     1     0     0
SMALL
abcg2


@<TRIPOS>ATOM
      1 C1          -4.7550     0.3420    -0.0930 ca         1 4N1       0.646300
      2 O1          -5.9970     0.7320     0.1770 os         1 4N1      -0.433300
      3 N2          -3.7410     1.0080     0.4140 nb         1 4N1      -0.767000
      4 C3          -2.5520     0.5330     0.0790 ca         1 4N1       0.417500
      5 C4          -2.2850    -0.5720    -0.7330 ca         1 4N1      -0.022600
      6 C5          -3.3790    -1.2620    -1.2600 ca         1 4N1       0.032000
      7 C6          -4.6270    -0.7940    -0.9320 ca         1 4N1      -0.183000
      8 N7          -1.3280     1.0080     0.4570 na         1 4N1      -0.410300
      9 C8          -0.4250     0.1890    -0.1330 cc         1 4N1       0.362300
     10 N9          -0.9310    -0.7570    -0.8510 nd         1 4N1      -0.476100
     11 C10         -6.1810     1.8670     1.0120 c3         1 4N1       0.150900
     12 N11          0.9680     0.3950     0.0230 na         1 4N1       0.084500
     13 C12          1.7430    -0.5670     0.5810 ca         1 4N1       0.026700
     14 C13          3.1180    -0.3790     0.6280 ca         1 4N1      -0.124300
     15 C14          3.6460     0.8090     0.1100 ca         1 4N1       0.239100
     16 O14          4.9600     1.0440     0.1410 os         1 4N1      -0.354100
     17 C15          2.8170     1.8090    -0.4210 ca         1 4N1      -0.103300
     18 C16          1.4750     1.5530    -0.4540 ca         1 4N1      -0.004300
     19 C17          1.0890    -1.7970     1.1130 c3         1 4N1       0.066900
     20 C18          4.0050    -1.4210     1.2370 c3         1 4N1      -0.061800
     21 C19          3.3700     3.0960    -0.9420 c3         1 4N1      -0.050800
     22 S20          1.0140    -3.1000    -0.1680 sh         1 4N1      -0.311800
     23 C21          5.7370     0.4170    -0.8900 c3         1 4N1       0.152900
     24 H5          -3.2550    -2.1270    -1.8990 ha         1 4N1       0.156000
     25 H6          -5.5200    -1.2810    -1.3010 ha         1 4N1       0.162000
     26 H7          -1.1430     1.7800     1.0820 hn         1 4N1       0.385000
     27 H101        -5.7810     1.6980     2.0130 h1         1 4N1       0.058700
     28 H102        -5.7130     2.7580     0.5930 h1         1 4N1       0.058700
     29 H103        -7.2550     2.0180     1.0750 h1         1 4N1       0.058700
     30 H16          0.7670     2.2440    -0.8860 h4         1 4N1       0.186000
     31 H171         1.6510    -2.1770     1.9620 h1         1 4N1       0.110200
     32 H181         4.0690    -2.3020     0.5960 hc         1 4N1       0.074700
     33 H182         5.0110    -1.0470     1.3980 hc         1 4N1       0.074700
     34 H183         3.6280    -1.7450     2.2060 hc         1 4N1       0.074700
     35 H191         4.0890     2.9250    -1.7420 hc         1 4N1       0.075700
     36 H192         2.5750     3.7250    -1.3350 hc         1 4N1       0.075700
     37 H193         3.8800     3.6450    -0.1520 hc         1 4N1       0.075700
     38 H211         6.7700     0.7000    -0.7110 h1         1 4N1       0.063033
     39 H212         5.6500    -0.6700    -0.8550 h1         1 4N1       0.063033
     40 H213         5.4280     0.7700    -1.8750 h1         1 4N1       0.063033
     41 H172         0.0810    -1.6040     1.4730 h1         1 4N1       0.110200
     42 H1           1.9820    -3.8710     0.3390 hs         1 4N1       0.199800
@<TRIPOS>BOND
     1     1     2 1   
     2     1     3 ar  
     3     1     7 ar  
     4     2    11 1   
     5     3     4 ar  
     6     4     5 ar  
     7     4     8 1   
     8     5     6 ar  
     9     5    10 1   
    10     6     7 ar  
    11     6    24 1   
    12     7    25 1   
    13     8     9 1   
    14     8    26 1   
    15     9    10 2   
    16     9    12 1   
    17    11    27 1   
    18    11    28 1   
    19    11    29 1   
    20    12    13 1   
    21    12    18 2   
    22    13    14 ar  
    23    13    19 1   
    24    14    15 ar  
    25    14    20 1   
    26    15    16 1   
    27    15    17 ar  
    28    16    23 1   
    29    17    18 ar  
    30    17    21 1   
    31    18    30 1   
    32    19    22 1   
    33    19    31 1   
    34    19    41 1   
    35    20    32 1   
    36    20    33 1   
    37    20    34 1   
    38    21    35 1   
    39    21    36 1   
    40    21    37 1   
    41    22    42 1   
    42    23    38 1   
    43    23    39 1   
    44    23    40 1   
@<TRIPOS>SUBSTRUCTURE
     1 4N1         1 TEMP              0 ****  ****    0 ROOT
