@<TRIPOS>MOLECULE
4N1
   42    44     1     0     0
SMALL
No Charge or Current Charge


@<TRIPOS>ATOM
      1 C1          -4.7690     0.3970    -0.3770 ca         1 4N1       0.646300
      2 O1          -6.0370     0.9170    -0.5030 os         1 4N1      -0.433300
      3 N2          -3.7580     1.1910     0.0550 nb         1 4N1      -0.767000
      4 C3          -2.5510     0.6180     0.1530 ca         1 4N1       0.417500
      5 C4          -2.2790    -0.7040    -0.1510 ca         1 4N1      -0.022600
      6 C5          -3.3080    -1.5390    -0.6000 ca         1 4N1       0.032000
      7 C6          -4.5850    -0.9590    -0.7110 ca         1 4N1      -0.183000
      8 N7          -1.3700     1.1460     0.5460 na         1 4N1      -0.410300
      9 C8          -0.4350     0.1170     0.4800 cc         1 4N1       0.362300
     10 N9          -0.9390    -1.0410     0.0380 nd         1 4N1      -0.476100
     11 C10         -6.3150     2.2950    -0.1830 c3         1 4N1       0.150900
     12 N11          0.9360     0.3280     0.7580 na         1 4N1       0.084500
     13 C12          1.8380    -0.7570     0.8860 ca         1 4N1       0.026700
     14 C13          3.1940    -0.5860     0.4750 ca         1 4N1      -0.124300
     15 C14          3.6260     0.6960     0.0480 ca         1 4N1       0.239100
     16 O14          4.9160     0.8960    -0.3870 os         1 4N1      -0.354100
     17 C15          2.7780     1.8130     0.1760 ca         1 4N1      -0.103300
     18 C16          1.4560     1.6200     0.6080 ca         1 4N1      -0.004300
     19 C17          1.3990    -2.0250     1.6430 c3         1 4N1       0.066900
     20 C18          4.2130    -1.7370     0.5520 c3         1 4N1      -0.061800
     21 C19          3.2870     3.2200    -0.1300 c3         1 4N1      -0.050800
     22 S20          1.2830    -3.4900     0.5020 sh         1 4N1      -0.311800
     23 C21          5.2760     0.5000    -1.7220 c3         1 4N1       0.152900
     24 H5          -3.1260    -2.5820    -0.8480 ha         1 4N1       0.156000
     25 H6          -5.4320    -1.5450    -1.0520 ha         1 4N1       0.162000
     26 H7          -1.2350     2.0930     0.8600 hn         1 4N1       0.385000
     27 H101        -6.0810     2.5090     0.8690 h1         1 4N1       0.058700
     28 H102        -5.7250     2.9710    -0.8140 h1         1 4N1       0.058700
     29 H103        -7.3760     2.5190    -0.3460 h1         1 4N1       0.058700
     30 H16          0.7980     2.4740     0.7600 h4         1 4N1       0.186000
     31 H171         2.1110    -2.2480     2.4480 h1         1 4N1       0.110200
     32 H181         4.1650    -2.3650    -0.3450 hc         1 4N1       0.074700
     33 H182         5.2430    -1.3710     0.6360 hc         1 4N1       0.074700
     34 H183         4.0630    -2.3820     1.4240 hc         1 4N1       0.074700
     35 H191         3.5690     3.3160    -1.1850 hc         1 4N1       0.075700
     36 H192         2.5310     3.9860     0.0790 hc         1 4N1       0.075700
     37 H193         4.1710     3.4590     0.4740 hc         1 4N1       0.075700
     38 H211         6.3330     0.7250    -1.9150 h1         1 4N1       0.063033
     39 H212         5.1230    -0.5760    -1.8720 h1         1 4N1       0.063033
     40 H213         4.6720     1.0400    -2.4620 h1         1 4N1       0.063033
     41 H172         0.4240    -1.8750     2.1250 h1         1 4N1       0.110200
     42 H1           2.5700    -3.4690     0.0840 hs         1 4N1       0.199800
@<TRIPOS>BOND
     1     1     2 1   
     2     1     3 ar  
     3     1     7 ar  
     4     2    11 1   
     5     3     4 ar  
     6     4     5 ar  
     7     4     8 1   
     8     5     6 ar  
     9     5    10 1   
    10     6     7 ar  
    11     6    24 1   
    12     7    25 1   
    13     8     9 1   
    14     8    26 1   
    15     9    10 2   
    16     9    12 1   
    17    11    27 1   
    18    11    28 1   
    19    11    29 1   
    20    12    13 1   
    21    12    18 2   
    22    13    14 ar  
    23    13    19 1   
    24    14    15 ar  
    25    14    20 1   
    26    15    16 1   
    27    15    17 ar  
    28    16    23 1   
    29    17    18 ar  
    30    17    21 1   
    31    18    30 1   
    32    19    22 1   
    33    19    31 1   
    34    19    41 1   
    35    20    32 1   
    36    20    33 1   
    37    20    34 1   
    38    21    35 1   
    39    21    36 1   
    40    21    37 1   
    41    22    42 1   
    42    23    38 1   
    43    23    39 1   
    44    23    40 1   
@<TRIPOS>SUBSTRUCTURE
     1 4N1         1 TEMP              0 ****  ****    0 ROOT
