@<TRIPOS>MOLECULE
4N2
   24    24     1     0     0
SMALL
No Charge or Current Charge


@<TRIPOS>ATOM
      1 C1           0.9750     1.1070     0.4020 c6         1 4N2       0.365300
      2 C2           1.8030    -0.1640    -0.0100 c6         1 4N2       0.128300
      3 C3           1.0560    -1.4410     0.5140 c6         1 4N2       0.132300
      4 C4          -0.4130    -1.4470    -0.0330 c6         1 4N2       0.152300
      5 C5          -1.1060    -0.1000     0.3750 c6         1 4N2       0.189300
      6 C6          -2.5810     0.0000    -0.1400 c3         1 4N2       0.170600
      7 O2           1.9550    -0.2190    -1.4510 oh         1 4N2      -0.700000
      8 O3           1.0590    -1.4810     1.9570 oh         1 4N2      -0.721000
      9 O4          -0.3730    -1.5990    -1.4660 oh         1 4N2      -0.691000
     10 O5          -0.3500     1.0360    -0.1340 os         1 4N2      -0.457000
     11 O6          -3.2470     1.2170     0.2620 oh         1 4N2      -0.719000
     12 O1           1.5380     2.2750    -0.1720 oh         1 4N2      -0.714000
     13 H1           0.9320     1.2050     1.4970 h2         1 4N2       0.027700
     14 H2           2.7930    -0.1100     0.4660 h1         1 4N2       0.030700
     15 H3           1.5720    -2.3330     0.1250 h1         1 4N2       0.050700
     16 H4          -0.9640    -2.2850     0.4190 h1         1 4N2       0.047700
     17 H5          -1.1400    -0.0350     1.4730 h1         1 4N2       0.058700
     18 H62         -2.5700    -0.0750    -1.2360 h1         1 4N2       0.038200
     19 H61         -3.1310    -0.8720     0.2390 h1         1 4N2       0.038200
     20 HO2          2.1830     0.7090    -1.7090 ho         1 4N2       0.526000
     21 HO3          1.9300    -1.8510     2.2380 ho         1 4N2       0.510000
     22 HO4          0.4400    -1.0870    -1.7300 ho         1 4N2       0.505000
     23 HO6         -4.1300     1.2200    -0.1770 ho         1 4N2       0.504000
     24 H6           0.7660     2.8770    -0.2630 ho         1 4N2       0.527000
@<TRIPOS>BOND
     1     1     2 1   
     2     1    10 1   
     3     1    12 1   
     4     1    13 1   
     5     2     3 1   
     6     2     7 1   
     7     2    14 1   
     8     3     4 1   
     9     3     8 1   
    10     3    15 1   
    11     4     5 1   
    12     4     9 1   
    13     4    16 1   
    14     5     6 1   
    15     5    10 1   
    16     5    17 1   
    17     6    11 1   
    18     6    18 1   
    19     6    19 1   
    20     7    20 1   
    21     8    21 1   
    22     9    22 1   
    23    11    23 1   
    24    12    24 1   
@<TRIPOS>SUBSTRUCTURE
     1 4N2         1 TEMP              0 ****  ****    0 ROOT
