@<TRIPOS>MOLECULE
4N2
   24    24     1     0     0
SMALL
abcg2


@<TRIPOS>ATOM
      1 C1           0.7920     1.2050     0.4050 c6         1 4N2       0.365300
      2 C2           1.7520     0.0850     0.0100 c6         1 4N2       0.128300
      3 C3           1.1330    -1.2730     0.3680 c6         1 4N2       0.132300
      4 C4          -0.3220    -1.4000    -0.1050 c6         1 4N2       0.152300
      5 C5          -1.1100    -0.1560     0.2910 c6         1 4N2       0.189300
      6 C6          -2.5310    -0.1790    -0.2300 c3         1 4N2       0.170600
      7 O2           2.0430     0.0900    -1.3630 oh         1 4N2      -0.700000
      8 O3           1.1050    -1.4450     1.7670 oh         1 4N2      -0.721000
      9 O4          -0.4170    -1.5650    -1.4960 oh         1 4N2      -0.691000
     10 O5          -0.4720     1.0130    -0.1800 os         1 4N2      -0.457000
     11 O6          -3.2450     0.8750     0.3750 oh         1 4N2      -0.719000
     12 O1           1.3080     2.4020    -0.0540 oh         1 4N2      -0.714000
     13 H1           0.6860     1.2030     1.5020 h2         1 4N2       0.027700
     14 H2           2.6710     0.2050     0.6070 h1         1 4N2       0.030700
     15 H3           1.7320    -2.0630    -0.1100 h1         1 4N2       0.050700
     16 H4          -0.7620    -2.2570     0.4270 h1         1 4N2       0.047700
     17 H5          -1.1540    -0.1410     1.3910 h1         1 4N2       0.058700
     18 H62         -2.5320    -0.0920    -1.3220 h1         1 4N2       0.038200
     19 H61         -2.9660    -1.1560     0.0190 h1         1 4N2       0.038200
     20 HO2          2.4530     0.9330    -1.5800 ho         1 4N2       0.526000
     21 HO3          2.0080    -1.4240     2.0980 ho         1 4N2       0.510000
     22 HO4          0.1310    -2.3130    -1.7530 ho         1 4N2       0.505000
     23 HO6         -4.1400     0.8670     0.0240 ho         1 4N2       0.504000
     24 H6           0.8350     3.1340     0.3550 ho         1 4N2       0.527000
@<TRIPOS>BOND
     1     1     2 1   
     2     1    10 1   
     3     1    12 1   
     4     1    13 1   
     5     2     3 1   
     6     2     7 1   
     7     2    14 1   
     8     3     4 1   
     9     3     8 1   
    10     3    15 1   
    11     4     5 1   
    12     4     9 1   
    13     4    16 1   
    14     5     6 1   
    15     5    10 1   
    16     5    17 1   
    17     6    11 1   
    18     6    18 1   
    19     6    19 1   
    20     7    20 1   
    21     8    21 1   
    22     9    22 1   
    23    11    23 1   
    24    12    24 1   
@<TRIPOS>SUBSTRUCTURE
     1 4N2         1 TEMP              0 ****  ****    0 ROOT
