@<TRIPOS>MOLECULE
4N3
   41    40     1     0     0
SMALL
abcg2


@<TRIPOS>ATOM
      1 N           -1.8150     0.2800    -0.1140 ns         1 4N3      -0.455900
      2 CA          -3.1640    -0.0370     0.2950 c3         1 4N3      -0.039300
      3 CB          -3.6450    -1.3820    -0.2870 c3         1 4N3      -0.056700
      4 CG1         -3.7110    -1.3600    -1.8110 c3         1 4N3      -0.078600
      5 CG2         -2.7840    -2.5450     0.1910 c3         1 4N3      -0.078600
      6 C           -4.1330     1.0970    -0.1160 c          1 4N3       0.713000
      7 O           -3.7070     1.9560    -0.9130 o          1 4N3      -0.727500
      8 CO1         -0.7220     0.1490     0.6510 c          1 4N3       0.590100
      9 O2          -0.7270    -0.3680     1.7640 o          1 4N3      -0.656100
     10 CD           0.5480     0.7100     0.0380 c3         1 4N3      -0.161400
     11 CE           1.8050    -0.0290     0.4750 c3         1 4N3      -0.063400
     12 CF           3.0630     0.5400    -0.1690 c3         1 4N3      -0.077400
     13 CH           4.3360    -0.1530     0.3000 c3         1 4N3      -0.075400
     14 CI           5.5970     0.3970    -0.3530 c3         1 4N3      -0.075400
     15 CJ           6.8730    -0.2750     0.1410 c3         1 4N3      -0.075400
     16 CK           8.1290     0.2830    -0.5140 c3         1 4N3      -0.087100
     17 H1          -1.7460     0.8420    -0.9490 hn         1 4N3       0.324500
     18 HA          -3.1770    -0.1220     1.3850 h1         1 4N3       0.065700
     19 HB          -4.6590    -1.5300     0.0960 hc         1 4N3       0.061700
     20 HG13        -2.7330    -1.1480    -2.2490 hc         1 4N3       0.020367
     21 HG11        -4.0330    -2.3300    -2.1940 hc         1 4N3       0.020367
     22 HG12        -4.4140    -0.6150    -2.1860 hc         1 4N3       0.020367
     23 HG22        -2.7500    -2.6020     1.2800 hc         1 4N3       0.020367
     24 HG23        -3.1790    -3.4920    -0.1830 hc         1 4N3       0.020367
     25 HG21        -1.7580    -2.4550    -0.1680 hc         1 4N3       0.020367
     26 OXT         -5.2740     1.0310     0.3770 o          1 4N3      -0.727500
     27 HD2          0.4690     0.7090    -1.0520 hc         1 4N3       0.049700
     28 HD1          0.6240     1.7630     0.3330 hc         1 4N3       0.049700
     29 HE1          1.9000     0.0200     1.5620 hc         1 4N3       0.048700
     30 HE2          1.7170    -1.0900     0.2220 hc         1 4N3       0.048700
     31 HF2          2.9850     0.4590    -1.2590 hc         1 4N3       0.032700
     32 HF1          3.1330     1.6110     0.0500 hc         1 4N3       0.032700
     33 HH1          4.4190    -0.0570     1.3880 hc         1 4N3       0.036700
     34 HH2          4.2610    -1.2280     0.0980 hc         1 4N3       0.036700
     35 HI1          5.5240     0.2830    -1.4400 hc         1 4N3       0.034700
     36 HI2          5.6620     1.4760    -0.1670 hc         1 4N3       0.034700
     37 HJ1          6.9440    -0.1590     1.2270 hc         1 4N3       0.035700
     38 HJ2          6.8090    -1.3510    -0.0440 hc         1 4N3       0.035700
     39 HK3          8.1060     0.1440    -1.5970 hc         1 4N3       0.027700
     40 HK2          8.2310     1.3530    -0.3240 hc         1 4N3       0.027700
     41 HK1          9.0290    -0.2070    -0.1390 hc         1 4N3       0.027700
@<TRIPOS>BOND
     1     1     2 1   
     2     1     8 1   
     3     1    17 1   
     4     2     3 1   
     5     2     6 1   
     6     2    18 1   
     7     3     4 1   
     8     3     5 1   
     9     3    19 1   
    10     4    20 1   
    11     4    21 1   
    12     4    22 1   
    13     5    23 1   
    14     5    24 1   
    15     5    25 1   
    16     6     7 1   
    17     6    26 1   
    18     8     9 2   
    19     8    10 1   
    20    10    11 1   
    21    10    27 1   
    22    10    28 1   
    23    11    12 1   
    24    11    29 1   
    25    11    30 1   
    26    12    13 1   
    27    12    31 1   
    28    12    32 1   
    29    13    14 1   
    30    13    33 1   
    31    13    34 1   
    32    14    15 1   
    33    14    35 1   
    34    14    36 1   
    35    15    16 1   
    36    15    37 1   
    37    15    38 1   
    38    16    39 1   
    39    16    40 1   
    40    16    41 1   
@<TRIPOS>SUBSTRUCTURE
     1 4N3         1 TEMP              0 ****  ****    0 ROOT
