@<TRIPOS>MOLECULE
4N3
   41    40     1     0     0
SMALL
No Charge or Current Charge


@<TRIPOS>ATOM
      1 N           -1.8450     0.5740    -0.0480 ns         1 4N3      -0.455900
      2 CA          -3.1940    -0.0450     0.0320 c3         1 4N3      -0.039300
      3 CB          -3.1840    -1.5580    -0.3480 c3         1 4N3      -0.056700
      4 CG1         -2.6350    -1.8300    -1.7700 c3         1 4N3      -0.078600
      5 CG2         -2.4520    -2.4280     0.7020 c3         1 4N3      -0.078600
      6 C           -4.2300     0.7650    -0.8150 c          1 4N3       0.713000
      7 O           -3.8360     1.3990    -1.7860 o          1 4N3      -0.727500
      8 CO1         -0.9480     0.6940     0.9900 c          1 4N3       0.590100
      9 O2          -1.2100     0.3500     2.1350 o          1 4N3      -0.656100
     10 CD           0.3920     1.3330     0.6090 c3         1 4N3      -0.161400
     11 CE           1.5190     0.2750     0.5440 c3         1 4N3      -0.063400
     12 CF           2.8860     0.8720     0.1480 c3         1 4N3      -0.077400
     13 CH           4.0110    -0.1840     0.0810 c3         1 4N3      -0.075400
     14 CI           5.3790     0.4130    -0.3160 c3         1 4N3      -0.075400
     15 CJ           6.5030    -0.6440    -0.3820 c3         1 4N3      -0.075400
     16 CK           7.8680    -0.0480    -0.7780 c3         1 4N3      -0.087100
     17 H1          -1.5500     0.9390    -0.9470 hn         1 4N3       0.324500
     18 HA          -3.5390     0.0380     1.0700 h1         1 4N3       0.065700
     19 HB          -4.2310    -1.8890    -0.3430 hc         1 4N3       0.061700
     20 HG13        -1.5810    -1.5400    -1.8510 hc         1 4N3       0.020367
     21 HG11        -2.7110    -2.8970    -2.0140 hc         1 4N3       0.020367
     22 HG12        -3.2050    -1.2760    -2.5250 hc         1 4N3       0.020367
     23 HG22        -2.8580    -2.2480     1.7050 hc         1 4N3       0.020367
     24 HG23        -2.5770    -3.4930     0.4740 hc         1 4N3       0.020367
     25 HG21        -1.3780    -2.2080     0.7180 hc         1 4N3       0.020367
     26 OXT         -5.3810     0.8240    -0.4050 o          1 4N3      -0.727500
     27 HD2          0.3140     1.8130    -0.3740 hc         1 4N3       0.049700
     28 HD1          0.6580     2.0780     1.3680 hc         1 4N3       0.049700
     29 HE1          1.6090    -0.2170     1.5210 hc         1 4N3       0.048700
     30 HE2          1.2400    -0.5020    -0.1790 hc         1 4N3       0.048700
     31 HF2          2.7960     1.3630    -0.8300 hc         1 4N3       0.032700
     32 HF1          3.1640     1.6490     0.8720 hc         1 4N3       0.032700
     33 HH1          4.1020    -0.6750     1.0590 hc         1 4N3       0.036700
     34 HH2          3.7330    -0.9610    -0.6420 hc         1 4N3       0.036700
     35 HI1          5.2870     0.9030    -1.2930 hc         1 4N3       0.034700
     36 HI2          5.6560     1.1890     0.4080 hc         1 4N3       0.034700
     37 HJ1          6.5990    -1.1350     0.5940 hc         1 4N3       0.035700
     38 HJ2          6.2300    -1.4210    -1.1070 hc         1 4N3       0.035700
     39 HK3          7.8140     0.4210    -1.7680 hc         1 4N3       0.027700
     40 HK2          8.1860     0.7090    -0.0520 hc         1 4N3       0.027700
     41 HK1          8.6320    -0.8340    -0.8120 hc         1 4N3       0.027700
@<TRIPOS>BOND
     1     1     2 1   
     2     1     8 1   
     3     1    17 1   
     4     2     3 1   
     5     2     6 1   
     6     2    18 1   
     7     3     4 1   
     8     3     5 1   
     9     3    19 1   
    10     4    20 1   
    11     4    21 1   
    12     4    22 1   
    13     5    23 1   
    14     5    24 1   
    15     5    25 1   
    16     6     7 1   
    17     6    26 1   
    18     8     9 2   
    19     8    10 1   
    20    10    11 1   
    21    10    27 1   
    22    10    28 1   
    23    11    12 1   
    24    11    29 1   
    25    11    30 1   
    26    12    13 1   
    27    12    31 1   
    28    12    32 1   
    29    13    14 1   
    30    13    33 1   
    31    13    34 1   
    32    14    15 1   
    33    14    35 1   
    34    14    36 1   
    35    15    16 1   
    36    15    37 1   
    37    15    38 1   
    38    16    39 1   
    39    16    40 1   
    40    16    41 1   
@<TRIPOS>SUBSTRUCTURE
     1 4N3         1 TEMP              0 ****  ****    0 ROOT
