@<TRIPOS>MOLECULE
4N5
   38    40     1     0     0
SMALL
abcg2


@<TRIPOS>ATOM
      1 CAA          4.3930    -3.3890    -0.9720 c3         1 4N5      -0.194100
      2 CAK          3.8910    -1.9860    -1.1470 c          1 4N5       0.580700
      3 OAB          3.8890    -1.4350    -2.2260 o          1 4N5      -0.496100
      4 CAL          3.3790    -1.2640     0.0590 ca         1 4N5      -0.168600
      5 CAG          2.8640     0.0200    -0.1060 ca         1 4N5      -0.015000
      6 CAD          3.4050    -1.8310     1.3300 ca         1 4N5      -0.053000
      7 CAC          2.9320    -1.1290     2.4300 ca         1 4N5      -0.121000
      8 CAE          2.4150     0.1440     2.2710 ca         1 4N5      -0.064000
      9 CAM          2.3840     0.6960     0.9980 ca         1 4N5      -0.058200
     10 NAN          1.8390     2.0020     0.8380 na         1 4N5       0.063500
     11 NAJ          2.4520     3.0780     1.3070 nc         1 4N5      -0.167800
     12 NAI          1.7020     4.0770     1.0540 nd         1 4N5      -0.046000
     13 NAH          0.5890     3.6990     0.4290 nd         1 4N5      -0.284000
     14 CAF          0.6810     2.4060     0.2980 cc         1 4N5       0.218400
     15 HAB          3.6160    -4.0300    -0.5520 hc         1 4N5       0.065033
     16 HAC          4.7070    -3.7990    -1.9280 hc         1 4N5       0.065033
     17 HAA          5.2390    -3.4160    -0.2830 hc         1 4N5       0.065033
     18 HAH          2.8470     0.4830    -1.0830 ha         1 4N5       0.170000
     19 HAE          3.7960    -2.8270     1.4830 ha         1 4N5       0.125000
     20 HAD          2.9630    -1.5770     3.4130 ha         1 4N5       0.131000
     21 HAF          2.0330     0.6970     3.1200 ha         1 4N5       0.138000
     22 S1          -0.5560     1.3820    -0.4780 sy         1 4N5       1.006100
     23 C1          -1.1480     0.3640     0.8820 c3         1 4N5      -0.236100
     24 C2          -2.1150    -0.6290     0.3180 ca         1 4N5      -0.095300
     25 C3          -1.6650    -1.8650    -0.1330 ca         1 4N5      -0.080000
     26 C4          -2.5620    -2.7730    -0.6740 ca         1 4N5      -0.100000
     27 C5          -3.9080    -2.4560    -0.7790 ca         1 4N5      -0.084000
     28 C6          -4.3430    -1.2170    -0.3310 ca         1 4N5       0.119000
     29 C7          -3.4610    -0.2970     0.2110 ca         1 4N5      -0.078000
     30 CL1         -6.0210    -0.8090    -0.4520 cl         1 4N5      -0.186000
     31 O1          -1.6050     2.2850    -0.9070 o          1 4N5      -0.479500
     32 O2           0.1290     0.5420    -1.4430 o          1 4N5      -0.479500
     33 H1          -0.2810    -0.1210     1.3320 h1         1 4N5       0.108700
     34 H2          -1.5990     1.0380     1.6110 h1         1 4N5       0.108700
     35 H3          -0.6170    -2.1260    -0.0520 ha         1 4N5       0.123000
     36 H4          -2.2140    -3.7370    -1.0190 ha         1 4N5       0.124000
     37 H5          -4.6090    -3.1650    -1.1980 ha         1 4N5       0.134000
     38 H6          -3.8200     0.6610     0.5630 ha         1 4N5       0.142000
@<TRIPOS>BOND
     1     1     2 1   
     2     1    15 1   
     3     1    16 1   
     4     1    17 1   
     5     2     3 2   
     6     2     4 1   
     7     4     5 ar  
     8     4     6 ar  
     9     5     9 ar  
    10     5    18 1   
    11     6     7 ar  
    12     6    19 1   
    13     7     8 ar  
    14     7    20 1   
    15     8     9 ar  
    16     8    21 1   
    17     9    10 1   
    18    10    11 1   
    19    10    14 1   
    20    11    12 2   
    21    12    13 1   
    22    13    14 2   
    23    14    22 1   
    24    22    23 1   
    25    22    31 2   
    26    22    32 2   
    27    23    24 1   
    28    23    33 1   
    29    23    34 1   
    30    24    25 ar  
    31    24    29 ar  
    32    25    26 ar  
    33    25    35 1   
    34    26    27 ar  
    35    26    36 1   
    36    27    28 ar  
    37    27    37 1   
    38    28    29 ar  
    39    28    30 1   
    40    29    38 1   
@<TRIPOS>SUBSTRUCTURE
     1 4N5         1 TEMP              0 ****  ****    0 ROOT
