@<TRIPOS>MOLECULE
4N5
   38    40     1     0     0
SMALL
No Charge or Current Charge


@<TRIPOS>ATOM
      1 CAA          4.7380    -3.2990    -1.0720 c3         1 4N5      -0.194100
      2 CAK          4.2530    -1.8520    -1.1710 c          1 4N5       0.580700
      3 OAB          4.4490    -1.2210    -2.2020 o          1 4N5      -0.496100
      4 CAL          3.5390    -1.2160     0.0050 ca         1 4N5      -0.168600
      5 CAG          3.0640     0.1120    -0.1050 ca         1 4N5      -0.015000
      6 CAD          3.3280    -1.9130     1.2190 ca         1 4N5      -0.053000
      7 CAC          2.6660    -1.2920     2.2910 ca         1 4N5      -0.121000
      8 CAE          2.2000     0.0250     2.1700 ca         1 4N5      -0.064000
      9 CAM          2.3860     0.7280     0.9660 ca         1 4N5      -0.058200
     10 NAN          1.9150     2.0340     0.8430 na         1 4N5       0.063500
     11 NAJ          2.5740     3.0630     1.4130 nc         1 4N5      -0.167800
     12 NAI          1.8110     4.0950     1.1480 nd         1 4N5      -0.046000
     13 NAH          0.6730     3.7380     0.4430 nd         1 4N5      -0.284000
     14 CAF          0.7450     2.4290     0.2510 cc         1 4N5       0.218400
     15 HAB          3.8940    -3.9430    -0.7990 hc         1 4N5       0.065033
     16 HAC          5.2250    -3.6440    -1.9910 hc         1 4N5       0.065033
     17 HAA          5.4050    -3.3950    -0.2080 hc         1 4N5       0.065033
     18 HAH          3.2130     0.6710    -1.0280 ha         1 4N5       0.170000
     19 HAE          3.6760    -2.9350     1.3510 ha         1 4N5       0.125000
     20 HAD          2.5160    -1.8360     3.2220 ha         1 4N5       0.131000
     21 HAF          1.6900     0.4970     3.0080 ha         1 4N5       0.138000
     22 S1          -0.4560     1.3490    -0.5840 sy         1 4N5       1.006100
     23 C1          -1.1940     0.4140     0.7890 c3         1 4N5      -0.236100
     24 C2          -2.2310    -0.6030     0.3230 ca         1 4N5      -0.095300
     25 C3          -1.8390    -1.9190     0.0100 ca         1 4N5      -0.080000
     26 C4          -2.7920    -2.8600    -0.4180 ca         1 4N5      -0.100000
     27 C5          -4.1430    -2.4890    -0.5350 ca         1 4N5      -0.084000
     28 C6          -4.5380    -1.1770    -0.2210 ca         1 4N5       0.119000
     29 C7          -3.5860    -0.2360     0.2070 ca         1 4N5      -0.078000
     30 Cl1         -6.2280    -0.7120    -0.3660 cl         1 4N5      -0.186000
     31 O1          -1.5220     2.1820    -1.1650 o          1 4N5      -0.479500
     32 O2           0.2750     0.3750    -1.4090 o          1 4N5      -0.479500
     33 H1          -0.3770    -0.0940     1.3120 h1         1 4N5       0.108700
     34 H2          -1.6450     1.1450     1.4700 h1         1 4N5       0.108700
     35 H3          -0.7950    -2.2140     0.0970 ha         1 4N5       0.123000
     36 H4          -2.4840    -3.8750    -0.6600 ha         1 4N5       0.124000
     37 H5          -4.8830    -3.2140    -0.8660 ha         1 4N5       0.134000
     38 H6          -3.9040     0.7750     0.4460 ha         1 4N5       0.142000
@<TRIPOS>BOND
     1     1     2 1   
     2     1    15 1   
     3     1    16 1   
     4     1    17 1   
     5     2     3 2   
     6     2     4 1   
     7     4     5 ar  
     8     4     6 ar  
     9     5     9 ar  
    10     5    18 1   
    11     6     7 ar  
    12     6    19 1   
    13     7     8 ar  
    14     7    20 1   
    15     8     9 ar  
    16     8    21 1   
    17     9    10 1   
    18    10    11 1   
    19    10    14 1   
    20    11    12 2   
    21    12    13 1   
    22    13    14 2   
    23    14    22 1   
    24    22    23 1   
    25    22    31 2   
    26    22    32 2   
    27    23    24 1   
    28    23    33 1   
    29    23    34 1   
    30    24    25 ar  
    31    24    29 ar  
    32    25    26 ar  
    33    25    35 1   
    34    26    27 ar  
    35    26    36 1   
    36    27    28 ar  
    37    27    37 1   
    38    28    29 ar  
    39    28    30 1   
    40    29    38 1   
@<TRIPOS>SUBSTRUCTURE
     1 4N5         1 TEMP              0 ****  ****    0 ROOT
