@<TRIPOS>MOLECULE
4N7
   45    47     1     0     0
SMALL
abcg2


@<TRIPOS>ATOM
      1 N           -1.5280    -1.0920    -0.5710 nh         1 4N7      -0.597400
      2 CA          -2.9270    -1.4500    -0.3210 c5         1 4N7       0.069500
      3 CB          -3.0690    -2.8160    -1.0040 c5         1 4N7      -0.072400
      4 CG          -1.9990    -2.7900    -2.0870 c5         1 4N7      -0.102400
      5 CD          -0.8500    -2.0910    -1.3790 c5         1 4N7       0.212800
      6 C           -3.3070    -1.5240     1.1720 c          1 4N7       0.716000
      7 OXT         -4.5300    -1.6570     1.3750 o          1 4N7      -0.707500
      8 O1           1.4130    -1.7740     0.3740 o          1 4N7      -0.598100
      9 C1           1.4940    -0.5850     0.0590 c          1 4N7       0.602900
     10 C2           2.8600     0.0090    -0.1300 ca         1 4N7      -0.132600
     11 C3           3.0820     1.1550    -0.8930 ca         1 4N7      -0.075000
     12 C6           4.3630     1.6520    -1.0730 ca         1 4N7      -0.131500
     13 C8           5.4650     1.0310    -0.4900 ca         1 4N7      -0.084300
     14 C10          6.8460     1.5940    -0.6570 c3         1 4N7      -0.039800
     15 C5           5.2410    -0.1180     0.2680 ca         1 4N7      -0.131500
     16 C21          3.9630    -0.6250     0.4400 ca         1 4N7      -0.075000
     17 C4           0.3840     0.3160    -0.0630 ce         1 4N7      -0.545200
     18 C7          -0.9680     0.0270    -0.1200 cf         1 4N7       0.357800
     19 C9          -1.8860     1.1470     0.2310 ca         1 4N7      -0.060800
     20 C12         -1.8660     1.6920     1.5100 ca         1 4N7      -0.066000
     21 C14         -2.6740     2.7750     1.8250 ca         1 4N7      -0.125000
     22 C15         -3.5050     3.3280     0.8580 ca         1 4N7      -0.111000
     23 C13         -3.5230     2.7930    -0.4240 ca         1 4N7      -0.125000
     24 C11         -2.7200     1.7050    -0.7350 ca         1 4N7      -0.066000
     25 H1          -3.5900    -0.7380    -0.8160 h1         1 4N7       0.046700
     26 H2          -2.8580    -3.6230    -0.2970 hc         1 4N7       0.053700
     27 H3          -4.0760    -2.9700    -1.3880 hc         1 4N7       0.053700
     28 H4          -1.7210    -3.7820    -2.4400 hc         1 4N7       0.033200
     29 H5          -2.3330    -2.2060    -2.9480 hc         1 4N7       0.033200
     30 H6          -0.1440    -1.6030    -2.0540 h1         1 4N7       0.059200
     31 H7          -0.2860    -2.7910    -0.7600 h1         1 4N7       0.059200
     32 H9           2.2520     1.6550    -1.3770 ha         1 4N7       0.125500
     33 H10          4.5080     2.5360    -1.6840 ha         1 4N7       0.098500
     34 H11          7.0440     2.3620     0.0930 hc         1 4N7       0.032700
     35 H12          7.6100     0.8260    -0.5440 hc         1 4N7       0.032700
     36 H13          6.9720     2.0590    -1.6340 hc         1 4N7       0.032700
     37 H14          6.0810    -0.6260     0.7280 ha         1 4N7       0.098500
     38 H15          3.8200    -1.5210     1.0290 ha         1 4N7       0.125500
     39 H16          0.6170     1.3680     0.0350 ha         1 4N7       0.171000
     40 H17         -1.2180     1.2590     2.2600 ha         1 4N7       0.123500
     41 H18         -2.6570     3.1870     2.8250 ha         1 4N7       0.099500
     42 H19         -4.1320     4.1760     1.1010 ha         1 4N7       0.095000
     43 H20         -4.1610     3.2260    -1.1830 ha         1 4N7       0.099500
     44 H21         -2.7320     1.2990    -1.7390 ha         1 4N7       0.123500
     45 O2          -2.3960    -1.4910     2.0130 o          1 4N7      -0.707500
@<TRIPOS>BOND
     1     1     2 1   
     2     1     5 1   
     3     1    18 1   
     4     2     3 1   
     5     2     6 1   
     6     2    25 1   
     7     3     4 1   
     8     3    26 1   
     9     3    27 1   
    10     4     5 1   
    11     4    28 1   
    12     4    29 1   
    13     5    30 1   
    14     5    31 1   
    15     6     7 1   
    16     6    45 1   
    17     8     9 2   
    18     9    10 1   
    19     9    17 1   
    20    10    11 ar  
    21    10    16 ar  
    22    11    12 ar  
    23    11    32 1   
    24    12    13 ar  
    25    12    33 1   
    26    13    14 1   
    27    13    15 ar  
    28    14    34 1   
    29    14    35 1   
    30    14    36 1   
    31    15    16 ar  
    32    15    37 1   
    33    16    38 1   
    34    17    18 2   
    35    17    39 1   
    36    18    19 1   
    37    19    20 ar  
    38    19    24 ar  
    39    20    21 ar  
    40    20    40 1   
    41    21    22 ar  
    42    21    41 1   
    43    22    23 ar  
    44    22    42 1   
    45    23    24 ar  
    46    23    43 1   
    47    24    44 1   
@<TRIPOS>SUBSTRUCTURE
     1 4N7         1 TEMP              0 ****  ****    0 ROOT
