@<TRIPOS>MOLECULE
4N7
   45    47     1     0     0
SMALL
No Charge or Current Charge


@<TRIPOS>ATOM
      1 N           -1.4510    -1.0920    -0.5750 nh         1 4N7      -0.597400
      2 CA          -2.6070    -1.7270     0.1500 c5         1 4N7       0.069500
      3 CB          -2.8660    -2.9960    -0.7200 c5         1 4N7      -0.072400
      4 CG          -2.6120    -2.4270    -2.1380 c5         1 4N7      -0.102400
      5 CD          -1.2680    -1.6780    -1.9280 c5         1 4N7       0.212800
      6 C           -2.1990    -2.0610     1.6480 c          1 4N7       0.716000
      7 OXT         -2.4060    -1.2150     2.5100 o          1 4N7      -0.707500
      8 O1           1.3250    -1.7780    -0.1750 o          1 4N7      -0.598100
      9 C1           1.4930    -0.5670    -0.1410 c          1 4N7       0.602900
     10 C2           2.9060    -0.0130    -0.1290 ca         1 4N7      -0.132600
     11 C3           3.2050     1.2970    -0.5730 ca         1 4N7      -0.075000
     12 C6           4.5270     1.7760    -0.5560 ca         1 4N7      -0.131500
     13 C8           5.5770     0.9580    -0.1060 ca         1 4N7      -0.084300
     14 C10          7.0050     1.4810    -0.0870 c3         1 4N7      -0.039800
     15 C5           5.2920    -0.3490     0.3240 ca         1 4N7      -0.131500
     16 C21          3.9730    -0.8320     0.3080 ca         1 4N7      -0.075000
     17 C4           0.3480     0.3980    -0.1010 ce         1 4N7      -0.545200
     18 C7          -0.9900     0.1900    -0.2740 cf         1 4N7       0.357800
     19 C9          -1.9840     1.2790    -0.0700 ca         1 4N7      -0.060800
     20 C12         -1.7780     2.2760     0.9110 ca         1 4N7      -0.066000
     21 C14         -2.7150     3.3090     1.0930 ca         1 4N7      -0.125000
     22 C15         -3.8690     3.3630     0.2960 ca         1 4N7      -0.111000
     23 C13         -4.0860     2.3830    -0.6830 ca         1 4N7      -0.125000
     24 C11         -3.1510     1.3490    -0.8660 ca         1 4N7      -0.066000
     25 H1          -3.4890    -1.0740     0.1650 h1         1 4N7       0.046700
     26 H2          -2.1640    -3.8090    -0.5030 hc         1 4N7       0.053700
     27 H3          -3.8810    -3.3900    -0.5920 hc         1 4N7       0.053700
     28 H4          -2.5370    -3.2090    -2.9020 hc         1 4N7       0.033200
     29 H5          -3.4110    -1.7420    -2.4450 hc         1 4N7       0.033200
     30 H6          -1.0990    -0.9140    -2.6990 h1         1 4N7       0.059200
     31 H7          -0.4220    -2.3780    -1.9480 h1         1 4N7       0.059200
     32 H9           2.4260     1.9500    -0.9580 ha         1 4N7       0.125500
     33 H10          4.7340     2.7870    -0.9010 ha         1 4N7       0.098500
     34 H11          7.2300     1.9670     0.8700 hc         1 4N7       0.032700
     35 H12          7.7300     0.6710    -0.2290 hc         1 4N7       0.032700
     36 H13          7.1730     2.2160    -0.8830 hc         1 4N7       0.032700
     37 H14          6.0950    -0.9950     0.6740 ha         1 4N7       0.098500
     38 H15          3.7790    -1.8470     0.6470 ha         1 4N7       0.125500
     39 H16          0.6430     1.4150     0.1230 ha         1 4N7       0.171000
     40 H17         -0.9010     2.2440     1.5510 ha         1 4N7       0.123500
     41 H18         -2.5460     4.0660     1.8560 ha         1 4N7       0.099500
     42 H19         -4.5930     4.1630     0.4380 ha         1 4N7       0.095000
     43 H20         -4.9770     2.4230    -1.3050 ha         1 4N7       0.099500
     44 H21         -3.3290     0.6070    -1.6400 ha         1 4N7       0.123500
     45 O2          -1.7710    -3.1710     1.9470 o          1 4N7      -0.707500
@<TRIPOS>BOND
     1     1     2 1   
     2     1     5 1   
     3     1    18 1   
     4     2     3 1   
     5     2     6 1   
     6     2    25 1   
     7     3     4 1   
     8     3    26 1   
     9     3    27 1   
    10     4     5 1   
    11     4    28 1   
    12     4    29 1   
    13     5    30 1   
    14     5    31 1   
    15     6     7 1   
    16     6    45 1   
    17     8     9 2   
    18     9    10 1   
    19     9    17 1   
    20    10    11 ar  
    21    10    16 ar  
    22    11    12 ar  
    23    11    32 1   
    24    12    13 ar  
    25    12    33 1   
    26    13    14 1   
    27    13    15 ar  
    28    14    34 1   
    29    14    35 1   
    30    14    36 1   
    31    15    16 ar  
    32    15    37 1   
    33    16    38 1   
    34    17    18 2   
    35    17    39 1   
    36    18    19 1   
    37    19    20 ar  
    38    19    24 ar  
    39    20    21 ar  
    40    20    40 1   
    41    21    22 ar  
    42    21    41 1   
    43    22    23 ar  
    44    22    42 1   
    45    23    24 ar  
    46    23    43 1   
    47    24    44 1   
@<TRIPOS>SUBSTRUCTURE
     1 4N7         1 TEMP              0 ****  ****    0 ROOT
