@<TRIPOS>MOLECULE
4N8
   30    31     1     0     0
SMALL
No Charge or Current Charge


@<TRIPOS>ATOM
      1 C           -2.2230     0.0600    -1.8530 c          1 4N8       0.734000
      2 N           -1.1880     0.7190     0.4450 n          1 4N8      -0.304800
      3 CA          -2.4310     0.4730    -0.3550 c5         1 4N8      -0.027300
      4 CB          -3.1530     1.8550    -0.3150 c5         1 4N8      -0.079400
      5 OXT         -2.9430    -0.8100    -2.3250 o          1 4N8      -0.713500
      6 CG          -2.7440     2.3850     1.0730 c5         1 4N8      -0.094400
      7 CD          -1.2310     2.0590     1.0880 c5         1 4N8       0.080000
      8 S1          -0.1750    -1.7700    -0.0200 s          1 4N8      -0.701400
      9 N1           0.9130     0.3160     1.2470 ns         1 4N8      -0.479900
     10 C2           2.1760    -0.3720     1.5470 c3         1 4N8       0.079700
     11 C4           3.1550    -0.3540     0.4010 cc         1 4N8       0.111300
     12 O1           3.9740    -1.4440     0.1980 os         1 4N8      -0.180000
     13 C7           4.7610    -1.1540    -0.8950 cc         1 4N8       0.131900
     14 C6           4.4490     0.0930    -1.3640 cd         1 4N8      -0.213000
     15 C5           3.4270     0.6040    -0.5380 cd         1 4N8      -0.206000
     16 H2          -3.0380    -0.3000     0.1320 h1         1 4N8       0.073700
     17 H3          -2.7950     2.5260    -1.1050 hc         1 4N8       0.051700
     18 H4          -4.2390     1.7630    -0.4330 hc         1 4N8       0.051700
     19 H5          -2.9440     3.4550     1.1960 hc         1 4N8       0.033200
     20 H6          -3.2730     1.8540     1.8730 hc         1 4N8       0.033200
     21 H7          -0.8420     2.0490     2.1140 h1         1 4N8       0.034700
     22 H8          -0.6560     2.7860     0.4990 h1         1 4N8       0.034700
     23 H9           0.8240     1.2760     1.5550 hn         1 4N8       0.294500
     24 H10          2.6420     0.1150     2.4130 h1         1 4N8       0.077200
     25 H11          1.9650    -1.4120     1.8290 h1         1 4N8       0.077200
     26 H12          5.4770    -1.8980    -1.2180 h4         1 4N8       0.053100
     27 H13          4.9080     0.5880    -2.2140 ha         1 4N8       0.127000
     28 H14          2.9420     1.5710    -0.6250 ha         1 4N8       0.126000
     29 O2          -1.3750     0.6310    -2.5300 o          1 4N8      -0.713500
     30 C1          -0.1520    -0.1950     0.5540 cs         1 4N8       0.506400
@<TRIPOS>BOND
     1     1     3 1   
     2     1     5 1   
     3     1    29 1   
     4     2     3 1   
     5     2     7 1   
     6     2    30 1   
     7     3     4 1   
     8     3    16 1   
     9     4     6 1   
    10     4    17 1   
    11     4    18 1   
    12     6     7 1   
    13     6    19 1   
    14     6    20 1   
    15     7    21 1   
    16     7    22 1   
    17     8    30 2   
    18     9    10 1   
    19     9    23 1   
    20     9    30 1   
    21    10    11 1   
    22    10    24 1   
    23    10    25 1   
    24    11    12 1   
    25    11    15 2   
    26    12    13 1   
    27    13    14 2   
    28    13    26 1   
    29    14    15 1   
    30    14    27 1   
    31    15    28 1   
@<TRIPOS>SUBSTRUCTURE
     1 4N8         1 TEMP              0 ****  ****    0 ROOT
