@<TRIPOS>MOLECULE
4N8
   30    31     1     0     0
SMALL
abcg2


@<TRIPOS>ATOM
      1 C           -2.3020    -0.3140    -1.6290 c          1 4N8       0.734000
      2 N           -1.2450     0.7210     0.3980 n          1 4N8      -0.304800
      3 CA          -2.4890     0.2700    -0.2140 c5         1 4N8      -0.027300
      4 CB          -3.3370     1.5520    -0.2870 c5         1 4N8      -0.079400
      5 OXT         -3.2000    -1.0950    -2.0020 o          1 4N8      -0.713500
      6 CG          -2.7280     2.4740     0.7610 c5         1 4N8      -0.094400
      7 CD          -1.2450     2.1520     0.6720 c5         1 4N8       0.080000
      8 S1          -0.4170    -1.7860     0.5680 s          1 4N8      -0.701400
      9 N1           0.9160     0.4650     1.0730 ns         1 4N8      -0.479900
     10 C2           2.1120    -0.2450     1.4600 c3         1 4N8       0.079700
     11 C4           3.1830    -0.1890     0.4310 cc         1 4N8       0.111300
     12 O1           2.9380    -0.7320    -0.7810 os         1 4N8      -0.180000
     13 C7           4.0420    -0.5610    -1.5380 cc         1 4N8       0.131900
     14 C6           5.0010     0.0800    -0.8320 cd         1 4N8      -0.213000
     15 C5           4.4360     0.3270     0.4580 cd         1 4N8      -0.206000
     16 H2          -2.9630    -0.4700     0.4350 h1         1 4N8       0.073700
     17 H3          -3.2490     2.0130    -1.2740 hc         1 4N8       0.051700
     18 H4          -4.3920     1.3470    -0.1130 hc         1 4N8       0.051700
     19 H5          -2.9320     3.5290     0.5790 hc         1 4N8       0.033200
     20 H6          -3.1000     2.2260     1.7570 hc         1 4N8       0.033200
     21 H7          -0.7210     2.3820     1.6020 h1         1 4N8       0.034700
     22 H8          -0.7630     2.7110    -0.1380 h1         1 4N8       0.034700
     23 H9           1.0160     1.4640     0.9910 hn         1 4N8       0.294500
     24 H10          2.5060     0.1940     2.3780 h1         1 4N8       0.077200
     25 H11          1.8320    -1.2750     1.6820 h1         1 4N8       0.077200
     26 H12          4.0020    -0.9420    -2.5460 h4         1 4N8       0.053100
     27 H13          5.9850     0.3490    -1.1810 ha         1 4N8       0.127000
     28 H14          4.9010     0.8250     1.2940 ha         1 4N8       0.126000
     29 O2          -1.3400     0.1070    -2.2920 o          1 4N8      -0.713500
     30 C1          -0.2350    -0.1070     0.6650 cs         1 4N8       0.506400
@<TRIPOS>BOND
     1     1     3 1   
     2     1     5 1   
     3     1    29 1   
     4     2     3 1   
     5     2     7 1   
     6     2    30 1   
     7     3     4 1   
     8     3    16 1   
     9     4     6 1   
    10     4    17 1   
    11     4    18 1   
    12     6     7 1   
    13     6    19 1   
    14     6    20 1   
    15     7    21 1   
    16     7    22 1   
    17     8    30 2   
    18     9    10 1   
    19     9    23 1   
    20     9    30 1   
    21    10    11 1   
    22    10    24 1   
    23    10    25 1   
    24    11    12 1   
    25    11    15 2   
    26    12    13 1   
    27    13    14 2   
    28    13    26 1   
    29    14    15 1   
    30    14    27 1   
    31    15    28 1   
@<TRIPOS>SUBSTRUCTURE
     1 4N8         1 TEMP              0 ****  ****    0 ROOT
