@<TRIPOS>MOLECULE
4N9
   34    35     1     0     0
SMALL
abcg2


@<TRIPOS>ATOM
      1 C            3.7090    -0.7580    -0.8390 c          1 4N9       0.735000
      2 N1          -6.7150     0.2360    -2.1590 n1         1 4N9      -0.492000
      3 N            1.8800     0.7820    -0.0760 n          1 4N9      -0.304800
      4 C3          -1.0250    -0.6350     1.5890 c3         1 4N9       0.165300
      5 C4          -2.2410    -0.4360     0.7210 ca         1 4N9      -0.035300
      6 C5          -3.1370    -1.4880     0.5490 ca         1 4N9      -0.101500
      7 C6          -4.2940    -1.3230    -0.1900 ca         1 4N9      -0.071000
      8 C7          -4.5640    -0.0860    -0.7750 ca         1 4N9      -0.042000
      9 C8          -3.6740     0.9760    -0.6110 ca         1 4N9      -0.071000
     10 C10         -5.7520     0.0920    -1.5430 cg         1 4N9       0.344000
     11 C9          -2.5230     0.7950     0.1360 ca         1 4N9      -0.101500
     12 N2           0.1040     0.1780     1.2270 ns         1 4N9      -0.486900
     13 C1           0.8750    -0.0640     0.1460 cs         1 4N9       0.494400
     14 S1           0.5320    -1.3540    -0.8850 s          1 4N9      -0.687400
     15 CA           2.9040     0.5360    -1.0820 c5         1 4N9      -0.028300
     16 CB           3.8290     1.7580    -0.9500 c5         1 4N9      -0.080400
     17 CG           2.9610     2.8260    -0.2990 c5         1 4N9      -0.094400
     18 CD           2.1020     2.0190     0.6610 c5         1 4N9       0.080000
     19 O            3.8090    -1.1500     0.3360 o          1 4N9      -0.713500
     20 H2          -1.2850    -0.3680     2.6150 h1         1 4N9       0.059700
     21 H3          -0.7540    -1.6920     1.5920 h1         1 4N9       0.059700
     22 H4          -2.9230    -2.4530     0.9920 ha         1 4N9       0.121000
     23 H5          -4.9810    -2.1480    -0.3220 ha         1 4N9       0.115500
     24 H6          -3.8840     1.9350    -1.0650 ha         1 4N9       0.115500
     25 H7          -1.8350     1.6210     0.2560 ha         1 4N9       0.121000
     26 H8           0.4070     0.8520     1.9110 hn         1 4N9       0.296500
     27 HA           2.4420     0.5060    -2.0720 h1         1 4N9       0.073700
     28 HB2          4.6710     1.5240    -0.2930 hc         1 4N9       0.053200
     29 HB1          4.2370     2.0630    -1.9130 hc         1 4N9       0.053200
     30 HG2          3.5360     3.5990     0.2110 hc         1 4N9       0.034700
     31 HG1          2.3240     3.3130    -1.0390 hc         1 4N9       0.034700
     32 HD2          1.1590     2.5180     0.8890 h1         1 4N9       0.033200
     33 HD1          2.6260     1.8290     1.6040 h1         1 4N9       0.033200
     34 OXT          4.2580    -1.2360    -1.8510 o          1 4N9      -0.713500
@<TRIPOS>BOND
     1     1    15 1   
     2     1    19 1   
     3     1    34 1   
     4     2    10 3   
     5     3    13 1   
     6     3    15 1   
     7     3    18 1   
     8     4     5 1   
     9     4    12 1   
    10     4    20 1   
    11     4    21 1   
    12     5     6 ar  
    13     5    11 ar  
    14     6     7 ar  
    15     6    22 1   
    16     7     8 ar  
    17     7    23 1   
    18     8     9 ar  
    19     8    10 1   
    20     9    11 ar  
    21     9    24 1   
    22    11    25 1   
    23    12    13 1   
    24    12    26 1   
    25    13    14 2   
    26    15    16 1   
    27    15    27 1   
    28    16    17 1   
    29    16    28 1   
    30    16    29 1   
    31    17    18 1   
    32    17    30 1   
    33    17    31 1   
    34    18    32 1   
    35    18    33 1   
@<TRIPOS>SUBSTRUCTURE
     1 4N9         1 TEMP              0 ****  ****    0 ROOT
