@<TRIPOS>MOLECULE
4N9
   34    35     1     0     0
SMALL
No Charge or Current Charge


@<TRIPOS>ATOM
      1 C            4.0930    -0.8520    -0.4580 c          1 4N9       0.735000
      2 N1          -6.8270     0.5830    -2.0540 n1         1 4N9      -0.492000
      3 N            1.9450     0.5840    -0.1310 n          1 4N9      -0.304800
      4 C3          -1.0680    -0.5890     1.6650 c3         1 4N9       0.165300
      5 C4          -2.3300    -0.3370     0.8500 ca         1 4N9      -0.035300
      6 C5          -2.7420    -1.2590    -0.1310 ca         1 4N9      -0.101500
      7 C6          -3.9050    -1.0230    -0.8850 ca         1 4N9      -0.071000
      8 C7          -4.6670     0.1410    -0.6650 ca         1 4N9      -0.042000
      9 C8          -4.2570     1.0650     0.3150 ca         1 4N9      -0.071000
     10 C10         -5.8560     0.3830    -1.4350 cg         1 4N9       0.344000
     11 C9          -3.0930     0.8270     1.0680 ca         1 4N9      -0.101500
     12 N2           0.0850     0.1210     1.1070 ns         1 4N9      -0.486900
     13 C1           1.0210    -0.3790     0.2430 cs         1 4N9       0.494400
     14 S1           0.9880    -1.9610    -0.3090 s          1 4N9      -0.687400
     15 CA           3.1530     0.2940    -0.9680 c5         1 4N9      -0.028300
     16 CB           3.9400     1.6400    -0.9270 c5         1 4N9      -0.080400
     17 CG           2.7970     2.6700    -0.8460 c5         1 4N9      -0.094400
     18 CD           1.8840     2.0260     0.2240 c5         1 4N9       0.080000
     19 O            4.3530    -0.9390     0.7370 o          1 4N9      -0.713500
     20 H2          -1.2250    -0.2390     2.6930 h1         1 4N9       0.059700
     21 H3          -0.8600    -1.6650     1.7170 h1         1 4N9       0.059700
     22 H4          -2.1590    -2.1590    -0.3120 ha         1 4N9       0.121000
     23 H5          -4.2100    -1.7440    -1.6400 ha         1 4N9       0.115500
     24 H6          -4.8370     1.9690     0.4950 ha         1 4N9       0.115500
     25 H7          -2.7840     1.5480     1.8210 ha         1 4N9       0.121000
     26 H8           0.1990     1.0900     1.3740 hn         1 4N9       0.296500
     27 HA           2.8440     0.0510    -1.9930 h1         1 4N9       0.073700
     28 HB2          4.5850     1.7080    -0.0430 hc         1 4N9       0.053200
     29 HB1          4.5770     1.7790    -1.8080 hc         1 4N9       0.053200
     30 HG2          3.1430     3.6690    -0.5560 hc         1 4N9       0.034700
     31 HG1          2.2770     2.7650    -1.8070 hc         1 4N9       0.034700
     32 HD2          0.8650     2.4330     0.1680 h1         1 4N9       0.033200
     33 HD1          2.2730     2.1900     1.2380 h1         1 4N9       0.033200
     34 OXT          4.5760    -1.6230    -1.2780 o          1 4N9      -0.713500
@<TRIPOS>BOND
     1     1    15 1   
     2     1    19 1   
     3     1    34 1   
     4     2    10 3   
     5     3    13 1   
     6     3    15 1   
     7     3    18 1   
     8     4     5 1   
     9     4    12 1   
    10     4    20 1   
    11     4    21 1   
    12     5     6 ar  
    13     5    11 ar  
    14     6     7 ar  
    15     6    22 1   
    16     7     8 ar  
    17     7    23 1   
    18     8     9 ar  
    19     8    10 1   
    20     9    11 ar  
    21     9    24 1   
    22    11    25 1   
    23    12    13 1   
    24    12    26 1   
    25    13    14 2   
    26    15    16 1   
    27    15    27 1   
    28    16    17 1   
    29    16    28 1   
    30    16    29 1   
    31    17    18 1   
    32    17    30 1   
    33    17    31 1   
    34    18    32 1   
    35    18    33 1   
@<TRIPOS>SUBSTRUCTURE
     1 4N9         1 TEMP              0 ****  ****    0 ROOT
