@<TRIPOS>MOLECULE
4NA
   30    32     1     0     0
SMALL
bcc


@<TRIPOS>ATOM
      1 C1          -3.9590    -0.9660    -0.0090 ca         1 4NA       0.165100
      2 C2          -3.2270     0.1960    -0.0860 ca         1 4NA      -0.081600
      3 C3          -1.8120     0.1940    -0.0570 ca         1 4NA       0.015000
      4 C4          -1.1460    -1.0550     0.0510 ca         1 4NA      -0.063000
      5 C5          -1.9150    -2.2400     0.1330 ca         1 4NA      -0.077000
      6 C6          -3.2770    -2.2000     0.1020 ca         1 4NA      -0.147000
      7 C9          -1.0210     1.3620    -0.1340 ca         1 4NA      -0.123000
      8 C10          0.3440     1.2880    -0.1070 ca         1 4NA      -0.105000
      9 C11          1.0230     0.0490     0.0010 cp         1 4NA      -0.028000
     10 C12          0.2630    -1.0940     0.0820 ca         1 4NA      -0.099000
     11 C16          2.4970    -0.0020     0.0180 cp         1 4NA      -0.073000
     12 C17          3.1900    -1.0710    -0.5550 ca         1 4NA      -0.077500
     13 C18          4.5720    -1.1310    -0.5390 ca         1 4NA      -0.195000
     14 C19          5.3080    -0.1080     0.0560 ca         1 4NA       0.144100
     15 C20          4.6350     0.9670     0.6300 ca         1 4NA      -0.195000
     16 C21          3.2510     1.0130     0.6070 ca         1 4NA      -0.077500
     17 O26          6.6500    -0.2090     0.0460 oh         1 4NA      -0.492100
     18 CL27        -4.0870     1.6990    -0.2230 cl         1 4NA      -0.118400
     19 O28         -5.2960    -1.0180    -0.0300 oh         1 4NA      -0.486100
     20 H5          -1.4070    -3.1920     0.2200 ha         1 4NA       0.139000
     21 H6          -3.8610    -3.1090     0.1640 ha         1 4NA       0.152000
     22 H9          -1.4930     2.3310    -0.2270 ha         1 4NA       0.144000
     23 H10          0.9170     2.2030    -0.1920 ha         1 4NA       0.133000
     24 H12          0.7400    -2.0610     0.1920 ha         1 4NA       0.133000
     25 H17          2.6440    -1.8680    -1.0440 ha         1 4NA       0.133500
     26 H18          5.0850    -1.9660    -0.9990 ha         1 4NA       0.139500
     27 H20          5.1890     1.7690     1.1040 ha         1 4NA       0.139500
     28 H21          2.7560     1.8530     1.0790 ha         1 4NA       0.133500
     29 H26          7.0500     0.5630     0.4620 ho         1 4NA       0.427000
     30 H28         -5.6800    -0.1360    -0.1180 ho         1 4NA       0.441000
@<TRIPOS>BOND
     1     1     2 ar  
     2     1     6 ar  
     3     1    19 1   
     4     2     3 ar  
     5     2    18 1   
     6     3     4 ar  
     7     3     7 ar  
     8     4     5 ar  
     9     4    10 ar  
    10     5     6 ar  
    11     5    20 1   
    12     6    21 1   
    13     7     8 ar  
    14     7    22 1   
    15     8     9 ar  
    16     8    23 1   
    17     9    10 ar  
    18     9    11 1   
    19    10    24 1   
    20    11    12 ar  
    21    11    16 ar  
    22    12    13 ar  
    23    12    25 1   
    24    13    14 ar  
    25    13    26 1   
    26    14    15 ar  
    27    14    17 1   
    28    15    16 ar  
    29    15    27 1   
    30    16    28 1   
    31    17    29 1   
    32    19    30 1   
@<TRIPOS>SUBSTRUCTURE
     1 4NA         1 TEMP              0 ****  ****    0 ROOT
