@<TRIPOS>MOLECULE
4NA
   30    32     1     0     0
SMALL
No Charge or Current Charge


@<TRIPOS>ATOM
      1 C1          -3.9860    -0.9970     0.0090 ca         1 4NA       0.165100
      2 C2          -3.2560     0.2070    -0.0900 ca         1 4NA       0.010000
      3 C3          -1.8390     0.1760    -0.0690 ca         1 4NA       0.015000
      4 C4          -1.1730    -1.0670     0.0510 ca         1 4NA      -0.063000
      5 C5          -1.9130    -2.2600     0.1490 ca         1 4NA      -0.059000
      6 C6          -3.3160    -2.2230     0.1280 ca         1 4NA      -0.129000
      7 C9          -1.0680     1.3550    -0.1630 ca         1 4NA      -0.105000
      8 C10          0.3360     1.2940    -0.1380 ca         1 4NA      -0.087000
      9 C11          1.0160     0.0580    -0.0200 cp         1 4NA      -0.028000
     10 C12          0.2340    -1.1180     0.0730 ca         1 4NA      -0.081000
     11 C16          2.5130    -0.0020     0.0050 cp         1 4NA      -0.073000
     12 C17          3.2130    -1.0790    -0.5980 ca         1 4NA      -0.059500
     13 C18          4.6180    -1.1340    -0.5730 ca         1 4NA      -0.177000
     14 C19          5.3510    -0.1170     0.0520 ca         1 4NA       0.144100
     15 C20          4.6820     0.9590     0.6550 ca         1 4NA      -0.177000
     16 C21          3.2770     1.0160     0.6310 ca         1 4NA      -0.059500
     17 O26          6.7110    -0.1790     0.0700 oh         1 4NA      -0.531100
     18 Cl27        -4.1460     1.7320    -0.2380 cl         1 4NA      -0.210000
     19 O28         -5.3520    -0.9850    -0.0100 oh         1 4NA      -0.525100
     20 H5          -1.4030    -3.2170     0.2420 ha         1 4NA       0.121000
     21 H6          -3.8840    -3.1460     0.2040 ha         1 4NA       0.134000
     22 H9          -1.5410     2.3280    -0.2590 ha         1 4NA       0.126000
     23 H10          0.9010     2.2180    -0.2270 ha         1 4NA       0.115000
     24 H12          0.7280    -2.0810     0.1790 ha         1 4NA       0.115000
     25 H17          2.6640    -1.8720    -1.1000 ha         1 4NA       0.115500
     26 H18          5.1360    -1.9660    -1.0440 ha         1 4NA       0.121500
     27 H20          5.2410     1.7520     1.1460 ha         1 4NA       0.121500
     28 H21          2.7760     1.8510     1.1160 ha         1 4NA       0.115500
     29 H26          7.0520     0.6090     0.5450 ho         1 4NA       0.466000
     30 H28         -5.6390    -0.0490    -0.0980 ho         1 4NA       0.480000
@<TRIPOS>BOND
     1     1     2 ar  
     2     1     6 ar  
     3     1    19 1   
     4     2     3 ar  
     5     2    18 1   
     6     3     4 ar  
     7     3     7 ar  
     8     4     5 ar  
     9     4    10 ar  
    10     5     6 ar  
    11     5    20 1   
    12     6    21 1   
    13     7     8 ar  
    14     7    22 1   
    15     8     9 ar  
    16     8    23 1   
    17     9    10 ar  
    18     9    11 1   
    19    10    24 1   
    20    11    12 ar  
    21    11    16 ar  
    22    12    13 ar  
    23    12    25 1   
    24    13    14 ar  
    25    13    26 1   
    26    14    15 ar  
    27    14    17 1   
    28    15    16 ar  
    29    15    27 1   
    30    16    28 1   
    31    17    29 1   
    32    19    30 1   
@<TRIPOS>SUBSTRUCTURE
     1 4NA         1 TEMP              0 ****  ****    0 ROOT
