@<TRIPOS>MOLECULE
4NB
   16    16     1     0     0
SMALL
bcc


@<TRIPOS>ATOM
      1 C            2.9200    -0.0530     0.0180 c          1 4NB       0.921200
      2 O1           3.4900     1.0530     0.0150 o          1 4NB      -0.809800
      3 O2           3.4480    -1.1790     0.0210 o          1 4NB      -0.809800
      4 C1           1.3910    -0.0240     0.0160 ca         1 4NB      -0.088600
      5 C2           0.7050     1.1880     0.0150 ca         1 4NB      -0.122000
      6 C3          -0.6790     1.2270     0.0130 ca         1 4NB      -0.096000
      7 C4          -1.3790     0.0280     0.0100 ca         1 4NB      -0.209200
      8 C5          -0.7240    -1.1960     0.0100 ca         1 4NB      -0.096000
      9 C6           0.6600    -1.2090     0.0150 ca         1 4NB      -0.122000
     10 N           -2.8320     0.0560     0.0050 no         1 4NB       0.319200
     11 O3          -3.4230    -0.9990    -0.0390 o          1 4NB      -0.247000
     12 O4          -3.3830     1.1320     0.0460 o          1 4NB      -0.247000
     13 H2           1.2610     2.1150     0.0140 ha         1 4NB       0.159000
     14 H3          -1.1940     2.1760     0.0110 ha         1 4NB       0.144000
     15 H5          -1.2760    -2.1250     0.0090 ha         1 4NB       0.144000
     16 H6           1.1800    -2.1570     0.0170 ha         1 4NB       0.159000
@<TRIPOS>BOND
     1     1     2 1   
     2     1     3 1   
     3     1     4 1   
     4     4     5 ar  
     5     4     9 ar  
     6     5     6 ar  
     7     5    13 1   
     8     6     7 ar  
     9     6    14 1   
    10     7     8 ar  
    11     7    10 1   
    12     8     9 ar  
    13     8    15 1   
    14     9    16 1   
    15    10    11 1   
    16    10    12 1   
@<TRIPOS>SUBSTRUCTURE
     1 4NB         1 TEMP              0 ****  ****    0 ROOT
