@<TRIPOS>MOLECULE
4NB
   16    16     1     0     0
SMALL
No Charge or Current Charge


@<TRIPOS>ATOM
      1 C            2.9550    -0.0540     0.0190 c          1 4NB       0.710600
      2 O1           3.5620     1.0100     0.0230 o          1 4NB      -0.704500
      3 O2           3.5210    -1.1390     0.0170 o          1 4NB      -0.704500
      4 C1           1.4330    -0.0250     0.0150 ca         1 4NB      -0.088600
      5 C2           0.7300     1.2020     0.0170 ca         1 4NB      -0.104000
      6 C3          -0.6750     1.2320     0.0140 ca         1 4NB      -0.078000
      7 C4          -1.4190     0.0290     0.0090 ca         1 4NB      -0.209200
      8 C5          -0.7210    -1.2010     0.0070 ca         1 4NB      -0.078000
      9 C6           0.6840    -1.2250     0.0100 ca         1 4NB      -0.104000
     10 N           -2.9190     0.0570     0.0060 no         1 4NB       0.699200
     11 O3          -3.5270    -1.0220     0.0010 o          1 4NB      -0.437000
     12 O4          -3.4860     1.1590     0.0080 o          1 4NB      -0.437000
     13 H2           1.2750     2.1440     0.0220 ha         1 4NB       0.141000
     14 H3          -1.1790     2.1970     0.0160 ha         1 4NB       0.126000
     15 H5          -1.2610    -2.1460     0.0030 ha         1 4NB       0.126000
     16 H6           1.1930    -2.1860     0.0080 ha         1 4NB       0.141000
@<TRIPOS>BOND
     1     1     2 1   
     2     1     3 1   
     3     1     4 1   
     4     4     5 ar  
     5     4     9 ar  
     6     5     6 ar  
     7     5    13 1   
     8     6     7 ar  
     9     6    14 1   
    10     7     8 ar  
    11     7    10 1   
    12     8     9 ar  
    13     8    15 1   
    14     9    16 1   
    15    10    11 1   
    16    10    12 1   
@<TRIPOS>SUBSTRUCTURE
     1 4NB         1 TEMP              0 ****  ****    0 ROOT
