@<TRIPOS>MOLECULE
4NC
   16    16     1     0     0
SMALL
No Charge or Current Charge


@<TRIPOS>ATOM
      1 C1           0.3750     0.0310     1.8340 ca         1 4NC       0.121100
      2 C2          -0.9020    -0.0990     1.2500 ca         1 4NC       0.086100
      3 C3          -1.0390    -0.1260    -0.1480 ca         1 4NC      -0.043000
      4 C4           0.1030    -0.0230    -0.9800 ca         1 4NC      -0.196200
      5 C5           1.3810     0.1080    -0.3830 ca         1 4NC      -0.020000
      6 C6           1.5110     0.1340     1.0180 ca         1 4NC      -0.200000
      7 O7           0.5050     0.0570     3.1970 oh         1 4NC      -0.526100
      8 O8          -2.0080    -0.1990     2.0490 oh         1 4NC      -0.530100
      9 N9          -0.0390    -0.0510    -2.4710 no         1 4NC       0.699200
     10 O10          0.9860     0.0420    -3.1590 o          1 4NC      -0.400000
     11 O11         -1.1760    -0.1660    -2.9480 o          1 4NC      -0.400000
     12 H3          -2.0350    -0.2270    -0.5740 ha         1 4NC       0.168000
     13 H5           2.2770     0.1890    -0.9970 ha         1 4NC       0.154000
     14 H6           2.5010     0.2350     1.4580 ha         1 4NC       0.128000
     15 HO7          1.4570     0.1520     3.4190 ho         1 4NC       0.481000
     16 HO8         -1.6870    -0.1590     2.9790 ho         1 4NC       0.477000
@<TRIPOS>BOND
     1     1     2 ar  
     2     1     6 ar  
     3     1     7 1   
     4     2     3 ar  
     5     2     8 1   
     6     3     4 ar  
     7     3    12 1   
     8     4     5 ar  
     9     4     9 1   
    10     5     6 ar  
    11     5    13 1   
    12     6    14 1   
    13     7    15 1   
    14     8    16 1   
    15     9    10 1   
    16     9    11 1   
@<TRIPOS>SUBSTRUCTURE
     1 4NC         1 TEMP              0 ****  ****    0 ROOT
