@<TRIPOS>MOLECULE
4NC
   16    16     1     0     0
SMALL
abcg2


@<TRIPOS>ATOM
      1 C1           0.4230     0.0970     1.8050 ca         1 4NC       0.121100
      2 C2          -0.8630    -0.0240     1.2470 ca         1 4NC       0.086100
      3 C3          -1.0080    -0.0910    -0.1220 ca         1 4NC      -0.043000
      4 C4           0.1180    -0.0220    -0.9370 ca         1 4NC      -0.196200
      5 C5           1.3920     0.0860    -0.4020 ca         1 4NC      -0.020000
      6 C6           1.5360     0.1400     0.9720 ca         1 4NC      -0.200000
      7 O7           0.4950     0.1500     3.1380 oh         1 4NC      -0.526100
      8 O8          -1.9640    -0.0240     2.0330 oh         1 4NC      -0.530100
      9 N9          -0.0500    -0.0700    -2.3710 no         1 4NC       0.699200
     10 O10          0.9410    -0.0300    -3.0670 o          1 4NC      -0.400000
     11 O11         -1.1750    -0.1340    -2.8150 o          1 4NC      -0.400000
     12 H3          -2.0020    -0.1910    -0.5370 ha         1 4NC       0.168000
     13 H5           2.2670     0.1280    -1.0330 ha         1 4NC       0.154000
     14 H6           2.5260     0.2260     1.4030 ha         1 4NC       0.128000
     15 HO7          1.4100     0.2490     3.4280 ho         1 4NC       0.481000
     16 HO8         -1.8360    -0.5930     2.8010 ho         1 4NC       0.477000
@<TRIPOS>BOND
     1     1     2 ar  
     2     1     6 ar  
     3     1     7 1   
     4     2     3 ar  
     5     2     8 1   
     6     3     4 ar  
     7     3    12 1   
     8     4     5 ar  
     9     4     9 1   
    10     5     6 ar  
    11     5    13 1   
    12     6    14 1   
    13     7    15 1   
    14     8    16 1   
    15     9    10 1   
    16     9    11 1   
@<TRIPOS>SUBSTRUCTURE
     1 4NC         1 TEMP              0 ****  ****    0 ROOT
