@<TRIPOS>MOLECULE
4ND
   35    36     1     0     0
SMALL
abcg2


@<TRIPOS>ATOM
      1 C1           3.4570     3.9060    -1.7420 c          1 4ND       0.675100
      2 O1           3.1810     2.7980    -1.3290 o          1 4ND      -0.569100
      3 N5           4.6390     4.1820    -2.3950 n          1 4ND      -0.092000
      4 C3           5.0990     5.5030    -2.6500 ca         1 4ND      -0.039000
      5 C4           5.2830     5.9230    -3.9630 ca         1 4ND      -0.114500
      6 C5           5.7620     7.2000    -4.2190 ca         1 4ND      -0.100750
      7 C6           6.0460     8.0640    -3.1690 ca         1 4ND      -0.112000
      8 C7           5.8580     7.6440    -1.8590 ca         1 4ND      -0.100750
      9 C8           5.3960     6.3620    -1.5960 ca         1 4ND      -0.114500
     10 C9           5.4780     3.1080    -2.7940 ca         1 4ND      -0.039000
     11 C10          6.8010     3.0790    -2.3680 ca         1 4ND      -0.114500
     12 C11          7.6430     2.0580    -2.7870 ca         1 4ND      -0.100750
     13 C12          7.1650     1.0550    -3.6200 ca         1 4ND      -0.112000
     14 C13          5.8420     1.0860    -4.0420 ca         1 4ND      -0.100750
     15 C14          5.0010     2.1120    -3.6400 ca         1 4ND      -0.114500
     16 N4           2.6110     4.9740    -1.6240 ns         1 4ND      -0.376300
     17 N3           1.4880     4.8620    -0.8720 nu         1 4ND      -0.701400
     18 N2          -0.7910     4.9290    -0.6410 nv         1 4ND      -1.021200
     19 N1           0.0700     4.5220    -2.7440 n2         1 4ND      -0.880100
     20 C15          0.2590     4.7840    -1.5100 c2         1 4ND       0.796100
     21 HC41         5.0540     5.2510    -4.7810 ha         1 4ND       0.125000
     22 HC51         5.9060     7.5220    -5.2420 ha         1 4ND       0.117250
     23 HC61         6.4140     9.0600    -3.3720 ha         1 4ND       0.116000
     24 HC71         6.0830     8.3090    -1.0360 ha         1 4ND       0.117250
     25 HC81         5.2680     6.0280    -0.5740 ha         1 4ND       0.125000
     26 H101         7.1770     3.8550    -1.7130 ha         1 4ND       0.125000
     27 H111         8.6720     2.0430    -2.4530 ha         1 4ND       0.117250
     28 H121         7.8220     0.2590    -3.9450 ha         1 4ND       0.116000
     29 H131         5.4640     0.3120    -4.6980 ha         1 4ND       0.117250
     30 H141         3.9780     2.1420    -3.9930 ha         1 4ND       0.125000
     31 HN41         2.8460     5.8850    -1.9920 hn         1 4ND       0.324500
     32 HN31         1.5320     5.3000     0.0360 hn         1 4ND       0.481000
     33 HN21        -1.6800     5.0600    -1.0950 hn         1 4ND       0.463500
     34 HN22        -0.6620     5.5480     0.1430 hn         1 4ND       0.463500
     35 HN11         0.9500     4.3700    -3.2230 hn         1 4ND       0.397400
@<TRIPOS>BOND
     1     1     2 2   
     2     1     3 1   
     3     1    16 1   
     4     3     4 1   
     5     3    10 1   
     6     4     5 ar  
     7     4     9 ar  
     8     5     6 ar  
     9     5    21 1   
    10     6     7 ar  
    11     6    22 1   
    12     7     8 ar  
    13     7    23 1   
    14     8     9 ar  
    15     8    24 1   
    16     9    25 1   
    17    10    11 ar  
    18    10    15 ar  
    19    11    12 ar  
    20    11    26 1   
    21    12    13 ar  
    22    12    27 1   
    23    13    14 ar  
    24    13    28 1   
    25    14    15 ar  
    26    14    29 1   
    27    15    30 1   
    28    16    17 1   
    29    16    31 1   
    30    17    20 1   
    31    17    32 1   
    32    18    20 1   
    33    18    33 1   
    34    18    34 1   
    35    19    20 2   
    36    19    35 1   
@<TRIPOS>SUBSTRUCTURE
     1 4ND         1 TEMP              0 ****  ****    0 ROOT
