@<TRIPOS>MOLECULE
4ND
   35    36     1     0     0
SMALL
No Charge or Current Charge


@<TRIPOS>ATOM
      1 C1           3.4090     4.0460    -1.6550 c          1 4ND       0.675100
      2 O1           3.0570     2.9680    -1.1870 o          1 4ND      -0.569100
      3 N5           4.6530     4.2410    -2.3310 n          1 4ND      -0.092000
      4 C3           5.1970     5.5680    -2.5710 ca         1 4ND      -0.039000
      5 C4           5.7860     5.8850    -3.8170 ca         1 4ND      -0.114500
      6 C5           6.3110     7.1660    -4.0580 ca         1 4ND      -0.100750
      7 C6           6.2590     8.1480    -3.0570 ca         1 4ND      -0.112000
      8 C7           5.6830     7.8470    -1.8130 ca         1 4ND      -0.100750
      9 C8           5.1570     6.5670    -1.5700 ca         1 4ND      -0.114500
     10 C9           5.4440     3.1240    -2.8310 ca         1 4ND      -0.039000
     11 C10          6.8580     3.2040    -2.8700 ca         1 4ND      -0.114500
     12 C11          7.6290     2.1310    -3.3490 ca         1 4ND      -0.100750
     13 C12          7.0030     0.9590    -3.7990 ca         1 4ND      -0.112000
     14 C13          5.6040     0.8620    -3.7690 ca         1 4ND      -0.100750
     15 C14          4.8310     1.9330    -3.2880 ca         1 4ND      -0.114500
     16 N4           2.5790     5.1710    -1.5610 ns         1 4ND      -0.376300
     17 N3           1.2680     5.1830    -0.9110 nu         1 4ND      -0.701400
     18 N2          -0.8180     4.6090    -0.6510 nv         1 4ND      -1.021200
     19 N1           0.1010     4.4240    -2.7220 n2         1 4ND      -0.880100
     20 C15          0.1890     4.6190    -1.4950 c2         1 4ND       0.796100
     21 HC41         5.8230     5.1420    -4.6110 ha         1 4ND       0.125000
     22 HC51         6.7560     7.3970    -5.0240 ha         1 4ND       0.117250
     23 HC61         6.6660     9.1400    -3.2440 ha         1 4ND       0.116000
     24 HC71         5.6520     8.6040    -1.0320 ha         1 4ND       0.117250
     25 HC81         4.7460     6.3490    -0.5860 ha         1 4ND       0.125000
     26 H101         7.3720     4.0910    -2.5070 ha         1 4ND       0.125000
     27 H111         8.7150     2.2080    -3.3670 ha         1 4ND       0.117250
     28 H121         7.6010     0.1290    -4.1710 ha         1 4ND       0.116000
     29 H131         5.1160    -0.0430    -4.1230 ha         1 4ND       0.117250
     30 H141         3.7490     1.8350    -3.3040 ha         1 4ND       0.125000
     31 HN41         2.9310     6.0410    -1.9590 hn         1 4ND       0.324500
     32 HN31         1.3100     5.0450     0.0990 hn         1 4ND       0.481000
     33 HN21        -1.6690     4.3690    -1.1400 hn         1 4ND       0.463500
     34 HN22        -0.8900     5.4790    -0.1430 hn         1 4ND       0.463500
     35 HN11         1.0330     4.6530    -3.0820 hn         1 4ND       0.397400
@<TRIPOS>BOND
     1     1     2 2   
     2     1     3 1   
     3     1    16 1   
     4     3     4 1   
     5     3    10 1   
     6     4     5 ar  
     7     4     9 ar  
     8     5     6 ar  
     9     5    21 1   
    10     6     7 ar  
    11     6    22 1   
    12     7     8 ar  
    13     7    23 1   
    14     8     9 ar  
    15     8    24 1   
    16     9    25 1   
    17    10    11 ar  
    18    10    15 ar  
    19    11    12 ar  
    20    11    26 1   
    21    12    13 ar  
    22    12    27 1   
    23    13    14 ar  
    24    13    28 1   
    25    14    15 ar  
    26    14    29 1   
    27    15    30 1   
    28    16    17 1   
    29    16    31 1   
    30    17    20 1   
    31    17    32 1   
    32    18    20 1   
    33    18    33 1   
    34    18    34 1   
    35    19    20 2   
    36    19    35 1   
@<TRIPOS>SUBSTRUCTURE
     1 4ND         1 TEMP              0 ****  ****    0 ROOT
