@<TRIPOS>MOLECULE
4NE
   53    52     1     0     0
SMALL
abcg2


@<TRIPOS>ATOM
      1 C10          1.4630    -0.0060    -1.0640 c3         1 4NE      -0.332900
      2 C13          5.2970    -0.0130    -0.4500 c3         1 4NE      -0.094100
      3 C15         -2.7870     0.0020    -0.2980 c3         1 4NE      -0.064150
      4 C17         -5.3060    -0.0040    -0.4820 c3         1 4NE      -0.094100
      5 P01         -0.0060     0.0000    -0.0080 p5         1 4NE       1.075000
      6 C02         -0.0120    -1.4620     1.0560 c3         1 4NE      -0.332900
      7 C03         -0.0210    -2.7800     0.2830 c3         1 4NE      -0.064150
      8 C04         -0.0240    -3.9800     1.2240 c3         1 4NE      -0.069400
      9 C05         -0.0370    -5.3000     0.4670 c3         1 4NE      -0.094100
     10 C06         -0.0040     1.4700     1.0460 c3         1 4NE      -0.332900
     11 C07          0.0020     2.7820     0.2650 c3         1 4NE      -0.064150
     12 C08          0.0030     3.9890     1.1980 c3         1 4NE      -0.069400
     13 C09          0.0050     5.3030     0.4310 c3         1 4NE      -0.094100
     14 C11          2.7760    -0.0110    -0.2830 c3         1 4NE      -0.064150
     15 C12          3.9820    -0.0150    -1.2170 c3         1 4NE      -0.069400
     16 C14         -1.4690     0.0000    -1.0710 c3         1 4NE      -0.332900
     17 C16         -3.9860     0.0020    -1.2390 c3         1 4NE      -0.069400
     18 H10          1.3870    -0.8810    -1.7160 hc         1 4NE       0.102700
     19 H10A         1.3940     0.8690    -1.7160 hc         1 4NE       0.102700
     20 H13          6.1510    -0.0210    -1.1270 hc         1 4NE       0.046033
     21 H13A         5.3820     0.8720     0.1820 hc         1 4NE       0.046033
     22 H13B         5.3770    -0.8900     0.1950 hc         1 4NE       0.046033
     23 H15         -2.8430    -0.8740     0.3550 hc         1 4NE       0.048700
     24 H15A        -2.8410     0.8790     0.3540 hc         1 4NE       0.048700
     25 H17         -6.1560    -0.0030    -1.1650 hc         1 4NE       0.046033
     26 H17A        -5.3920    -0.8870     0.1530 hc         1 4NE       0.046033
     27 H17B        -5.3960     0.8750     0.1590 hc         1 4NE       0.046033
     28 H02          0.8650    -1.3910     1.7060 hc         1 4NE       0.102700
     29 H02A        -0.8850    -1.3810     1.7090 hc         1 4NE       0.102700
     30 H03         -0.9000    -2.8310    -0.3660 hc         1 4NE       0.048700
     31 H03A         0.8520    -2.8400    -0.3720 hc         1 4NE       0.048700
     32 H04          0.8560    -3.9310     1.8720 hc         1 4NE       0.050575
     33 H04A        -0.8950    -3.9190     1.8820 hc         1 4NE       0.050575
     34 H05         -0.9210    -5.3800    -0.1680 hc         1 4NE       0.046033
     35 H05A         0.8400    -5.3940    -0.1750 hc         1 4NE       0.046033
     36 H05B        -0.0420    -6.1490     1.1500 hc         1 4NE       0.046033
     37 H06         -0.8810     1.4010     1.6960 hc         1 4NE       0.102700
     38 H06A         0.8680     1.3960     1.7010 hc         1 4NE       0.102700
     39 H07          0.8800     2.8310    -0.3860 hc         1 4NE       0.048700
     40 H07A        -0.8730     2.8360    -0.3900 hc         1 4NE       0.048700
     41 H08         -0.8730     3.9400     1.8500 hc         1 4NE       0.050575
     42 H08A         0.8780     3.9370     1.8510 hc         1 4NE       0.050575
     43 H09          0.8850     5.3840    -0.2090 hc         1 4NE       0.046033
     44 H09A        -0.8760     5.3880    -0.2070 hc         1 4NE       0.046033
     45 H09B         0.0070     6.1580     1.1080 hc         1 4NE       0.046033
     46 H11          2.8300     0.8640     0.3700 hc         1 4NE       0.048700
     47 H11A         2.8240    -0.8890     0.3690 hc         1 4NE       0.048700
     48 H12          3.9320     0.8600    -1.8710 hc         1 4NE       0.050575
     49 H12A         3.9310    -0.8910    -1.8680 hc         1 4NE       0.050575
     50 H14         -1.3940    -0.8750    -1.7210 hc         1 4NE       0.102700
     51 H14A        -1.3930     0.8740    -1.7240 hc         1 4NE       0.102700
     52 H16         -3.9330     0.8800    -1.8890 hc         1 4NE       0.050575
     53 H16A        -3.9290    -0.8720    -1.8940 hc         1 4NE       0.050575
@<TRIPOS>BOND
     1     1     5 1   
     2     1    14 1   
     3     1    18 1   
     4     1    19 1   
     5     2    15 1   
     6     2    20 1   
     7     2    21 1   
     8     2    22 1   
     9     3    16 1   
    10     3    17 1   
    11     3    23 1   
    12     3    24 1   
    13     4    17 1   
    14     4    25 1   
    15     4    26 1   
    16     4    27 1   
    17     5     6 1   
    18     5    10 1   
    19     5    16 1   
    20     6     7 1   
    21     6    28 1   
    22     6    29 1   
    23     7     8 1   
    24     7    30 1   
    25     7    31 1   
    26     8     9 1   
    27     8    32 1   
    28     8    33 1   
    29     9    34 1   
    30     9    35 1   
    31     9    36 1   
    32    10    11 1   
    33    10    37 1   
    34    10    38 1   
    35    11    12 1   
    36    11    39 1   
    37    11    40 1   
    38    12    13 1   
    39    12    41 1   
    40    12    42 1   
    41    13    43 1   
    42    13    44 1   
    43    13    45 1   
    44    14    15 1   
    45    14    46 1   
    46    14    47 1   
    47    15    48 1   
    48    15    49 1   
    49    16    50 1   
    50    16    51 1   
    51    17    52 1   
    52    17    53 1   
@<TRIPOS>SUBSTRUCTURE
     1 4NE         1 TEMP              0 ****  ****    0 ROOT
