@<TRIPOS>MOLECULE
4NE
   53    52     1     0     0
SMALL
No Charge or Current Charge


@<TRIPOS>ATOM
      1 C10          1.4970    -0.0090    -1.0770 c3         1 4NE      -0.332900
      2 C13          5.4180    -0.0130    -0.5770 c3         1 4NE      -0.094100
      3 C15         -2.8710     0.0030    -0.3510 c3         1 4NE      -0.064150
      4 C17         -5.4310     0.0070    -0.6070 c3         1 4NE      -0.094100
      5 P01         -0.0080    -0.0020    -0.0080 p5         1 4NE       1.075000
      6 C02         -0.0150    -1.5000     1.0690 c3         1 4NE      -0.332900
      7 C03         -0.0180    -2.8650     0.3360 c3         1 4NE      -0.064150
      8 C04         -0.0240    -4.0600     1.3110 c3         1 4NE      -0.069400
      9 C05         -0.0270    -5.4240     0.5930 c3         1 4NE      -0.094100
     10 C06         -0.0070     1.5030     1.0590 c3         1 4NE      -0.332900
     11 C07          0.0010     2.8640     0.3160 c3         1 4NE      -0.064150
     12 C08          0.0010     4.0660     1.2840 c3         1 4NE      -0.069400
     13 C09          0.0090     5.4250     0.5570 c3         1 4NE      -0.094100
     14 C11          2.8570    -0.0080    -0.3350 c3         1 4NE      -0.064150
     15 C12          4.0590    -0.0140    -1.3030 c3         1 4NE      -0.069400
     16 C14         -1.5060    -0.0010    -1.0850 c3         1 4NE      -0.332900
     17 C16         -4.0670     0.0030    -1.3260 c3         1 4NE      -0.069400
     18 H10          1.4130    -0.8960    -1.7170 hc         1 4NE       0.102700
     19 H10A         1.4160     0.8710    -1.7250 hc         1 4NE       0.102700
     20 H13          6.2400    -0.0180    -1.3030 hc         1 4NE       0.046033
     21 H13A         5.5220     0.8800     0.0520 hc         1 4NE       0.046033
     22 H13B         5.5190    -0.9000     0.0610 hc         1 4NE       0.046033
     23 H15         -2.9420    -0.8780     0.3000 hc         1 4NE       0.048700
     24 H15A        -2.9390     0.8880     0.2960 hc         1 4NE       0.048700
     25 H17         -6.2480     0.0070    -1.3380 hc         1 4NE       0.046033
     26 H17A        -5.5380    -0.8810     0.0270 hc         1 4NE       0.046033
     27 H17B        -5.5350     0.8990     0.0230 hc         1 4NE       0.046033
     28 H02          0.8680    -1.4170     1.7140 hc         1 4NE       0.102700
     29 H02A        -0.8990    -1.4110     1.7110 hc         1 4NE       0.102700
     30 H03         -0.9000    -2.9310    -0.3150 hc         1 4NE       0.048700
     31 H03A         0.8660    -2.9370    -0.3120 hc         1 4NE       0.048700
     32 H04          0.8570    -4.0020     1.9640 hc         1 4NE       0.050575
     33 H04A        -0.9070    -3.9970     1.9600 hc         1 4NE       0.050575
     34 H05         -0.9160    -5.5270    -0.0410 hc         1 4NE       0.046033
     35 H05A         0.8640    -5.5330    -0.0370 hc         1 4NE       0.046033
     36 H05B        -0.0310    -6.2410     1.3250 hc         1 4NE       0.046033
     37 H06         -0.8930     1.4250     1.7000 hc         1 4NE       0.102700
     38 H06A         0.8740     1.4190     1.7070 hc         1 4NE       0.102700
     39 H07          0.8870     2.9260    -0.3290 hc         1 4NE       0.048700
     40 H07A        -0.8790     2.9320    -0.3370 hc         1 4NE       0.048700
     41 H08         -0.8830     4.0130     1.9310 hc         1 4NE       0.050575
     42 H08A         0.8800     4.0060     1.9380 hc         1 4NE       0.050575
     43 H09          0.9020     5.5230    -0.0730 hc         1 4NE       0.046033
     44 H09A        -0.8770     5.5300    -0.0800 hc         1 4NE       0.046033
     45 H09B         0.0100     6.2470     1.2830 hc         1 4NE       0.046033
     46 H11          2.9240     0.8780     0.3110 hc         1 4NE       0.048700
     47 H11A         2.9210    -0.8880     0.3190 hc         1 4NE       0.048700
     48 H12          4.0030     0.8640    -1.9580 hc         1 4NE       0.050575
     49 H12A         4.0010    -0.8990    -1.9500 hc         1 4NE       0.050575
     50 H14         -1.4230    -0.8870    -1.7270 hc         1 4NE       0.102700
     51 H14A        -1.4190     0.8800    -1.7310 hc         1 4NE       0.102700
     52 H16         -4.0050     0.8830    -1.9780 hc         1 4NE       0.050575
     53 H16A        -4.0090    -0.8800    -1.9740 hc         1 4NE       0.050575
@<TRIPOS>BOND
     1     1     5 1   
     2     1    14 1   
     3     1    18 1   
     4     1    19 1   
     5     2    15 1   
     6     2    20 1   
     7     2    21 1   
     8     2    22 1   
     9     3    16 1   
    10     3    17 1   
    11     3    23 1   
    12     3    24 1   
    13     4    17 1   
    14     4    25 1   
    15     4    26 1   
    16     4    27 1   
    17     5     6 1   
    18     5    10 1   
    19     5    16 1   
    20     6     7 1   
    21     6    28 1   
    22     6    29 1   
    23     7     8 1   
    24     7    30 1   
    25     7    31 1   
    26     8     9 1   
    27     8    32 1   
    28     8    33 1   
    29     9    34 1   
    30     9    35 1   
    31     9    36 1   
    32    10    11 1   
    33    10    37 1   
    34    10    38 1   
    35    11    12 1   
    36    11    39 1   
    37    11    40 1   
    38    12    13 1   
    39    12    41 1   
    40    12    42 1   
    41    13    43 1   
    42    13    44 1   
    43    13    45 1   
    44    14    15 1   
    45    14    46 1   
    46    14    47 1   
    47    15    48 1   
    48    15    49 1   
    49    16    50 1   
    50    16    51 1   
    51    17    52 1   
    52    17    53 1   
@<TRIPOS>SUBSTRUCTURE
     1 4NE         1 TEMP              0 ****  ****    0 ROOT
