@<TRIPOS>MOLECULE
4NF
   18    18     1     0     0
SMALL
bcc


@<TRIPOS>ATOM
      1 N2           2.3950     0.9660     0.1450 ns         1 4NF      -0.371100
      2 S2           3.7480    -1.3060     0.7350 s          1 4NF      -0.461400
      3 C4           3.5190     0.2750     0.3650 cs         1 4NF       0.413200
      4 O4          -3.4720    -1.2860     0.2530 o          1 4NF      -0.208000
      5 C5           1.0510     0.6070     0.1440 ca         1 4NF       0.087600
      6 C6           0.5690    -0.6790     0.3970 ca         1 4NF      -0.173500
      7 C7          -0.7920    -0.9210     0.3670 ca         1 4NF      -0.036000
      8 C8          -1.6740     0.1110     0.0880 ca         1 4NF      -0.201200
      9 C9          -1.2110     1.3970    -0.1660 ca         1 4NF      -0.036000
     10 C10          0.1440     1.6350    -0.1370 ca         1 4NF      -0.173500
     11 N3          -3.0980    -0.1530     0.0570 no         1 4NF       0.318200
     12 O3          -3.8440     0.7740    -0.1630 o          1 4NF      -0.208000
     13 H1           2.5540     1.9430    -0.0600 hn         1 4NF       0.319500
     14 H3           4.3810     0.9300     0.2670 h5         1 4NF       0.048200
     15 H5           1.2430    -1.4910     0.6160 ha         1 4NF       0.167000
     16 H6          -1.1490    -1.9210     0.5660 ha         1 4NF       0.174000
     17 H7          -1.8890     2.2080    -0.3850 ha         1 4NF       0.174000
     18 H8           0.5060     2.6360    -0.3370 ha         1 4NF       0.167000
@<TRIPOS>BOND
     1     1     3 1   
     2     1     5 1   
     3     1    13 1   
     4     2     3 2   
     5     3    14 1   
     6     4    11 1   
     7     5     6 ar  
     8     5    10 ar  
     9     6     7 ar  
    10     6    15 1   
    11     7     8 ar  
    12     7    16 1   
    13     8     9 ar  
    14     8    11 1   
    15     9    10 ar  
    16     9    17 1   
    17    10    18 1   
    18    11    12 1   
@<TRIPOS>SUBSTRUCTURE
     1 4NF         1 TEMP              0 ****  ****    0 ROOT
