@<TRIPOS>MOLECULE
4NF
   18    18     1     0     0
SMALL
No Charge or Current Charge


@<TRIPOS>ATOM
      1 N2           2.4600     0.9270     0.0020 ns         1 4NF      -0.304100
      2 S2           3.6150    -1.0040     1.5410 s          1 4NF      -0.461400
      3 C4           3.5870     0.3090     0.4950 cs         1 4NF       0.346200
      4 O4          -3.5610    -1.3390     0.2670 o          1 4NF      -0.398000
      5 C5           1.0780     0.6200     0.0520 ca         1 4NF       0.087600
      6 C6           0.5980    -0.6960     0.1920 ca         1 4NF      -0.155500
      7 C7          -0.7830    -0.9550     0.2200 ca         1 4NF      -0.018000
      8 C8          -1.7120     0.1040     0.0980 ca         1 4NF      -0.201200
      9 C9          -1.2280     1.4230    -0.0600 ca         1 4NF      -0.018000
     10 C10          0.1560     1.6710    -0.0880 ca         1 4NF      -0.155500
     11 N3          -3.1840    -0.1680     0.1280 no         1 4NF       0.698200
     12 O3          -3.9590     0.7910     0.0140 o          1 4NF      -0.398000
     13 H1           2.6610     1.7680    -0.5280 hn         1 4NF       0.319500
     14 H3           4.4960     0.8370     0.2030 h5         1 4NF       0.048200
     15 H5           1.2850    -1.5330     0.2580 ha         1 4NF       0.149000
     16 H6          -1.1220    -1.9850     0.3290 ha         1 4NF       0.156000
     17 H7          -1.9160     2.2620    -0.1620 ha         1 4NF       0.156000
     18 H8           0.5090     2.6930    -0.2090 ha         1 4NF       0.149000
@<TRIPOS>BOND
     1     1     3 1   
     2     1     5 1   
     3     1    13 1   
     4     2     3 2   
     5     3    14 1   
     6     4    11 1   
     7     5     6 ar  
     8     5    10 ar  
     9     6     7 ar  
    10     6    15 1   
    11     7     8 ar  
    12     7    16 1   
    13     8     9 ar  
    14     8    11 1   
    15     9    10 ar  
    16     9    17 1   
    17    10    18 1   
    18    11    12 1   
@<TRIPOS>SUBSTRUCTURE
     1 4NF         1 TEMP              0 ****  ****    0 ROOT
