@<TRIPOS>MOLECULE
4NG
   18    18     1     0     0
SMALL
bcc


@<TRIPOS>ATOM
      1 CAA          0.6780     0.8930     0.2570 c          1 4NG       0.757500
      2 CAC          1.9980    -0.9540    -0.3940 c5         1 4NG       0.268500
      3 CAD          0.5800    -1.4560    -0.1530 c5         1 4NG      -0.024400
      4 CAE         -0.1590    -0.3100     0.5460 c5         1 4NG      -0.251900
      5 NAB          1.7530     0.4630    -0.4700 n          1 4NG      -0.371300
      6 OAF          2.7730     1.3130    -0.7840 oh         1 4NG      -0.415100
      7 OAG          0.5020     2.0540     0.5760 o          1 4NG      -0.635500
      8 OAH          2.8340    -1.3000     0.6810 oh         1 4NG      -0.625800
      9 PAI         -1.9300    -0.1170    -0.0740 p5         1 4NG       1.130700
     10 H1           2.4230    -1.3060    -1.3380 h2         1 4NG       0.025700
     11 H2           0.1180    -1.6730    -1.1170 hc         1 4NG       0.058200
     12 H3           0.5860    -2.3800     0.4230 hc         1 4NG       0.058200
     13 H4          -0.1790    -0.4540     1.6310 hc         1 4NG       0.066700
     14 H5           3.2500     1.5070     0.0360 ho         1 4NG       0.347000
     15 H6           3.7520    -1.1690     0.4220 ho         1 4NG       0.366000
     16 OAJ         -1.7540     0.3660    -1.5170 o          1 4NG      -0.917833
     17 OAK         -2.4970    -1.5340     0.0470 o          1 4NG      -0.917833
     18 OAL         -2.5860     0.8970     0.8620 o          1 4NG      -0.917833
@<TRIPOS>BOND
     1     1     4 1   
     2     1     5 1   
     3     1     7 2   
     4     2     3 1   
     5     2     5 1   
     6     2     8 1   
     7     2    10 1   
     8     3     4 1   
     9     3    11 1   
    10     3    12 1   
    11     4     9 1   
    12     4    13 1   
    13     5     6 1   
    14     6    14 1   
    15     8    15 1   
    16     9    16 1   
    17     9    17 1   
    18     9    18 1   
@<TRIPOS>SUBSTRUCTURE
     1 4NG         1 TEMP              0 ****  ****    0 ROOT
