@<TRIPOS>MOLECULE
4NG
   18    18     1     0     0
SMALL
No Charge or Current Charge


@<TRIPOS>ATOM
      1 CAA          0.6000     0.8700     0.6450 c          1 4NG       0.615000
      2 CAC          1.7190    -0.9240    -0.5660 c5         1 4NG       0.291700
      3 CAD          0.6470    -1.5570     0.3790 c5         1 4NG      -0.024400
      4 CAE         -0.2840    -0.3460     0.7290 c5         1 4NG      -0.409700
      5 NAB          1.7120     0.4740    -0.1200 n          1 4NG      -0.304300
      6 OAF          2.8350     1.3690    -0.3120 oh         1 4NG      -0.454100
      7 OAG          0.5200     1.9230     1.2670 o          1 4NG      -0.560000
      8 OAH          3.0030    -1.5170    -0.4410 oh         1 4NG      -0.688000
      9 PAI         -1.6130    -0.0890    -0.5020 p5         1 4NG       1.288500
     10 H1           1.3900    -0.9180    -1.6120 h2         1 4NG       0.025700
     11 H2           0.1220    -2.3980    -0.0880 hc         1 4NG       0.058200
     12 H3           1.1200    -1.9430     1.2890 hc         1 4NG       0.058200
     13 H4          -0.7640    -0.4070     1.7080 hc         1 4NG       0.066700
     14 H5           3.3700     1.2760     0.5070 ho         1 4NG       0.386000
     15 H6           3.6160    -0.8770    -0.8620 ho         1 4NG       0.405000
     16 OAJ         -1.0000     0.2270    -1.8220 o          1 4NG      -0.917833
     17 OAK         -2.3920    -1.3570    -0.5570 o          1 4NG      -0.917833
     18 OAL         -2.4590     1.0320    -0.0080 o          1 4NG      -0.917833
@<TRIPOS>BOND
     1     1     4 1   
     2     1     5 1   
     3     1     7 2   
     4     2     3 1   
     5     2     5 1   
     6     2     8 1   
     7     2    10 1   
     8     3     4 1   
     9     3    11 1   
    10     3    12 1   
    11     4     9 1   
    12     4    13 1   
    13     5     6 1   
    14     6    14 1   
    15     8    15 1   
    16     9    16 1   
    17     9    17 1   
    18     9    18 1   
@<TRIPOS>SUBSTRUCTURE
     1 4NG         1 TEMP              0 ****  ****    0 ROOT
