@<TRIPOS>MOLECULE
4NH
   50    51     1     0     0
SMALL
No Charge or Current Charge


@<TRIPOS>ATOM
      1 C1          -2.0700    -2.8590    -1.0530 c3         1 4NH      -0.088100
      2 C2          -3.3130    -1.9510    -0.7980 c6         1 4NH       0.110000
      3 C3          -2.8780    -0.5410    -0.2120 c6         1 4NH       0.164500
      4 N1          -2.2070    -0.6040     1.1730 n3         1 4NH      -0.790500
      5 C4          -3.0830    -1.2640     2.2010 c6         1 4NH       0.217800
      6 C5          -3.5010    -2.7180     1.8790 c6         1 4NH       0.035600
      7 S1          -4.4690    -2.8660     0.3210 ss         1 4NH      -0.444000
      8 S2          -1.5550     0.9040     1.7360 sy         1 4NH       1.195600
      9 O1          -1.5180     0.8070     3.1990 o          1 4NH      -0.534500
     10 O2          -2.3250     1.9760     1.0960 o          1 4NH      -0.534500
     11 C6           0.1790     0.9580     1.1960 ca         1 4NH      -0.339500
     12 C7           1.0030    -0.1600     1.4160 ca         1 4NH       0.030500
     13 C8           2.3470    -0.1320     1.0070 ca         1 4NH      -0.199500
     14 C9           2.8700     1.0180     0.3770 ca         1 4NH       0.200100
     15 C10          2.0400     2.1300     0.1630 ca         1 4NH      -0.199500
     16 C11          0.6950     2.1060     0.5680 ca         1 4NH       0.030500
     17 O3           4.1800     1.1050    -0.0450 os         1 4NH      -0.333100
     18 C12          5.1120     0.0240     0.1240 c3         1 4NH       0.256700
     19 C13          6.4080     0.4360    -0.4260 c1         1 4NH      -0.152100
     20 C14          7.4870     0.7500    -0.8760 c1         1 4NH      -0.084100
     21 C15          8.7820     1.1630    -1.4300 c3         1 4NH       0.230900
     22 N2           9.8370     0.2340    -0.9800 n8         1 4NH      -0.988200
     23 C16         -2.1690     0.2990    -1.3590 c          1 4NH       0.605100
     24 O4          -0.9520     0.3340    -1.5070 o          1 4NH      -0.552100
     25 N3          -3.0090     1.1000    -2.1440 ns         1 4NH      -0.356400
     26 O5          -2.4720     2.0810    -3.0800 oh         1 4NH      -0.416100
     27 C17         -4.0810    -1.8430    -2.1520 c3         1 4NH      -0.088100
     28 H11A        -1.4180    -2.4440    -1.8310 hc         1 4NH       0.053367
     29 H12         -1.4570    -2.9750    -0.1520 hc         1 4NH       0.053367
     30 H13         -2.3680    -3.8620    -1.3790 hc         1 4NH       0.053367
     31 H3          -3.8210     0.0060    -0.0650 h1         1 4NH       0.070700
     32 H41         -3.9930    -0.6670     2.3660 h1         1 4NH       0.076200
     33 H42         -2.5690    -1.3220     3.1710 h1         1 4NH       0.076200
     34 H51         -4.1230    -3.1110     2.6980 h1         1 4NH       0.077200
     35 H52         -2.6140    -3.3650     1.8090 h1         1 4NH       0.077200
     36 H7           0.6020    -1.0520     1.8990 ha         1 4NH       0.141000
     37 H8           2.9610    -1.0080     1.1870 ha         1 4NH       0.129500
     38 H10          2.4420     3.0150    -0.3220 ha         1 4NH       0.129500
     39 H11          0.0640     2.9770     0.3920 ha         1 4NH       0.141000
     40 H121         5.2370    -0.2210     1.1870 h1         1 4NH       0.056700
     41 H122         4.7680    -0.8740    -0.4050 h1         1 4NH       0.056700
     42 H151         8.7310     1.1580    -2.5280 h1         1 4NH       0.049700
     43 H152         9.0170     2.1820    -1.0910 h1         1 4NH       0.049700
     44 HN21        10.7460     0.5870    -1.3040 hn         1 4NH       0.400000
     45 HN22         9.9050     0.2920     0.0430 hn         1 4NH       0.400000
     46 HN3         -3.9860     1.2230    -1.8810 hn         1 4NH       0.332500
     47 HO5         -2.9460     1.8840    -3.9220 ho         1 4NH       0.444000
     48 H171        -4.4550    -2.8240    -2.4730 hc         1 4NH       0.053367
     49 H172        -4.9510    -1.1800    -2.0660 hc         1 4NH       0.053367
     50 H173        -3.4480    -1.4710    -2.9670 hc         1 4NH       0.053367
@<TRIPOS>BOND
     1     1     2 1   
     2     1    28 1   
     3     1    29 1   
     4     1    30 1   
     5     2     3 1   
     6     2     7 1   
     7     2    27 1   
     8     3     4 1   
     9     3    23 1   
    10     3    31 1   
    11     4     5 1   
    12     4     8 1   
    13     5     6 1   
    14     5    32 1   
    15     5    33 1   
    16     6     7 1   
    17     6    34 1   
    18     6    35 1   
    19     8     9 2   
    20     8    10 2   
    21     8    11 1   
    22    11    12 ar  
    23    11    16 ar  
    24    12    13 ar  
    25    12    36 1   
    26    13    14 ar  
    27    13    37 1   
    28    14    15 ar  
    29    14    17 1   
    30    15    16 ar  
    31    15    38 1   
    32    16    39 1   
    33    17    18 1   
    34    18    19 1   
    35    18    40 1   
    36    18    41 1   
    37    19    20 3   
    38    20    21 1   
    39    21    22 1   
    40    21    42 1   
    41    21    43 1   
    42    22    44 1   
    43    22    45 1   
    44    23    24 2   
    45    23    25 1   
    46    25    26 1   
    47    25    46 1   
    48    26    47 1   
    49    27    48 1   
    50    27    49 1   
    51    27    50 1   
@<TRIPOS>SUBSTRUCTURE
     1 4NH         1 TEMP              0 ****  ****    0 ROOT
