@<TRIPOS>MOLECULE
4NH
   50    51     1     0     0
SMALL
abcg2


@<TRIPOS>ATOM
      1 C1          -0.8090    -1.1980    -1.4740 c3         1 4NH      -0.088100
      2 C2          -2.3010    -1.4350    -1.2960 c6         1 4NH       0.110000
      3 C3          -3.0460    -0.3740    -0.4470 c6         1 4NH       0.164500
      4 N1          -2.5600    -0.2610     0.9300 n3         1 4NH      -0.790500
      5 C4          -2.7610    -1.4640     1.7370 c6         1 4NH       0.217800
      6 C5          -2.0110    -2.6610     1.1910 c6         1 4NH       0.035600
      7 S1          -2.5560    -3.0660    -0.4840 ss         1 4NH      -0.444000
      8 S2          -1.7780     1.0390     1.5810 sy         1 4NH       1.195600
      9 O1          -1.8710     0.8910     3.0250 o          1 4NH      -0.534500
     10 O2          -2.3150     2.2380     0.9620 o          1 4NH      -0.534500
     11 C6          -0.0710     0.9170     1.1560 ca         1 4NH      -0.339500
     12 C7           0.7360     0.0370     1.8640 ca         1 4NH       0.030500
     13 C8           2.0630    -0.1280     1.5080 ca         1 4NH      -0.199500
     14 C9           2.5890     0.6030     0.4420 ca         1 4NH       0.200100
     15 C10          1.7750     1.5030    -0.2500 ca         1 4NH      -0.199500
     16 C11          0.4500     1.6570     0.1010 ca         1 4NH       0.030500
     17 O3           3.8570     0.5070     0.0150 os         1 4NH      -0.333100
     18 C12          4.7160    -0.4300     0.6490 c3         1 4NH       0.256700
     19 C13          6.0050    -0.3830    -0.0190 c1         1 4NH      -0.152100
     20 C14          7.0840    -0.3700    -0.5490 c1         1 4NH      -0.084100
     21 C15          8.3900    -0.3300    -1.2020 c3         1 4NH       0.230900
     22 N2           9.4400     0.0320    -0.2610 n8         1 4NH      -0.988200
     23 C16         -3.1820     0.9650    -1.1920 c          1 4NH       0.605100
     24 O4          -2.3140     1.4690    -1.8740 o          1 4NH      -0.552100
     25 N3          -4.4410     1.4390    -1.1130 ns         1 4NH      -0.356400
     26 O5          -4.6940     2.7020    -1.5580 oh         1 4NH      -0.416100
     27 C17         -2.9920    -1.5770    -2.6510 c3         1 4NH      -0.088100
     28 H11A        -0.6140    -0.2240    -1.9170 hc         1 4NH       0.053367
     29 H12         -0.2560    -1.2540    -0.5370 hc         1 4NH       0.053367
     30 H13         -0.4000    -1.9610    -2.1360 hc         1 4NH       0.053367
     31 H3          -4.0660    -0.7660    -0.3410 h1         1 4NH       0.070700
     32 H41         -3.8330    -1.6790     1.7600 h1         1 4NH       0.076200
     33 H42         -2.4540    -1.2750     2.7630 h1         1 4NH       0.076200
     34 H51         -2.2280    -3.5350     1.8060 h1         1 4NH       0.077200
     35 H52         -0.9320    -2.4980     1.2210 h1         1 4NH       0.077200
     36 H7           0.3480    -0.5290     2.7000 ha         1 4NH       0.141000
     37 H8           2.6660    -0.8210     2.0770 ha         1 4NH       0.129500
     38 H10          2.1900     2.0740    -1.0710 ha         1 4NH       0.129500
     39 H11         -0.1720     2.3420    -0.4570 ha         1 4NH       0.141000
     40 H121         4.8390    -0.1880     1.7100 h1         1 4NH       0.056700
     41 H122         4.2980    -1.4410     0.5880 h1         1 4NH       0.056700
     42 H151         8.6090    -1.3220    -1.6030 h1         1 4NH       0.049700
     43 H152         8.3100     0.3360    -2.0720 h1         1 4NH       0.049700
     44 HN21        10.3290    -0.0130    -0.7430 hn         1 4NH       0.400000
     45 HN22         9.3240     0.9980     0.0170 hn         1 4NH       0.400000
     46 HN3         -5.0680     1.1290    -0.3820 hn         1 4NH       0.332500
     47 HO5         -5.1460     2.5980    -2.4060 ho         1 4NH       0.444000
     48 H171        -2.5990    -2.4430    -3.1860 hc         1 4NH       0.053367
     49 H172        -4.0690    -1.7130    -2.5430 hc         1 4NH       0.053367
     50 H173        -2.8160    -0.7030    -3.2760 hc         1 4NH       0.053367
@<TRIPOS>BOND
     1     1     2 1   
     2     1    28 1   
     3     1    29 1   
     4     1    30 1   
     5     2     3 1   
     6     2     7 1   
     7     2    27 1   
     8     3     4 1   
     9     3    23 1   
    10     3    31 1   
    11     4     5 1   
    12     4     8 1   
    13     5     6 1   
    14     5    32 1   
    15     5    33 1   
    16     6     7 1   
    17     6    34 1   
    18     6    35 1   
    19     8     9 2   
    20     8    10 2   
    21     8    11 1   
    22    11    12 ar  
    23    11    16 ar  
    24    12    13 ar  
    25    12    36 1   
    26    13    14 ar  
    27    13    37 1   
    28    14    15 ar  
    29    14    17 1   
    30    15    16 ar  
    31    15    38 1   
    32    16    39 1   
    33    17    18 1   
    34    18    19 1   
    35    18    40 1   
    36    18    41 1   
    37    19    20 3   
    38    20    21 1   
    39    21    22 1   
    40    21    42 1   
    41    21    43 1   
    42    22    44 1   
    43    22    45 1   
    44    23    24 2   
    45    23    25 1   
    46    25    26 1   
    47    25    46 1   
    48    26    47 1   
    49    27    48 1   
    50    27    49 1   
    51    27    50 1   
@<TRIPOS>SUBSTRUCTURE
     1 4NH         1 TEMP              0 ****  ****    0 ROOT
