@<TRIPOS>MOLECULE
4NI
   15    14     1     0     0
SMALL
No Charge or Current Charge


@<TRIPOS>ATOM
      1 C1           2.5570     0.0870    -0.1390 c          1 4NI       0.721000
      2 C2           1.3070    -0.7750     0.1100 c3         1 4NI      -0.214400
      3 C3           0.0250     0.0350    -0.2080 c3         1 4NI      -0.065400
      4 C4          -1.2710    -0.7770     0.0230 c3         1 4NI      -0.038400
      5 O11          2.9710     0.7780     0.7790 o          1 4NI      -0.731000
      6 O12          3.0410     0.0860    -1.2600 o          1 4NI      -0.731000
      7 N5          -2.5240     0.0400    -0.2970 no         1 4NI       0.576000
      8 O51         -3.0260     0.7060     0.6160 o          1 4NI      -0.425500
      9 O52         -2.9540     0.0030    -1.4560 o          1 4NI      -0.425500
     10 H21          1.2940    -1.6370    -0.5680 hc         1 4NI       0.019200
     11 H22          1.2340    -1.0470     1.1710 hc         1 4NI       0.019200
     12 H31          0.0010     0.9380     0.4160 hc         1 4NI       0.069700
     13 H32          0.0580     0.3720    -1.2530 hc         1 4NI       0.069700
     14 H41         -1.3040    -1.6620    -0.6240 h1         1 4NI       0.077700
     15 H42         -1.3620    -1.0870     1.0710 h1         1 4NI       0.077700
@<TRIPOS>BOND
     1     1     2 1   
     2     1     5 1   
     3     1     6 1   
     4     2     3 1   
     5     2    10 1   
     6     2    11 1   
     7     3     4 1   
     8     3    12 1   
     9     3    13 1   
    10     4     7 1   
    11     4    14 1   
    12     4    15 1   
    13     7     8 1   
    14     7     9 1   
@<TRIPOS>SUBSTRUCTURE
     1 4NI         1 TEMP              0 ****  ****    0 ROOT
