@<TRIPOS>MOLECULE
4NI
   15    14     1     0     0
SMALL
bcc


@<TRIPOS>ATOM
      1 C1           2.5740     0.0820    -0.0700 c          1 4NI       0.931600
      2 C2           1.2490    -0.6950    -0.1990 c3         1 4NI      -0.214400
      3 C3          -0.0090     0.1470    -0.0360 c3         1 4NI      -0.065400
      4 C4          -1.2260    -0.7370    -0.1810 c3         1 4NI      -0.067700
      5 O11          2.5110     1.2940     0.2090 o          1 4NI      -0.836300
      6 O12          3.6120    -0.5860    -0.2550 o          1 4NI      -0.836300
      7 N5          -2.5340    -0.0260    -0.0460 no         1 4NI       0.225300
      8 O51         -2.5390     1.1440     0.2430 o          1 4NI      -0.235500
      9 O52         -3.5320    -0.6820    -0.2310 o          1 4NI      -0.235500
     10 H21          1.2400    -1.2000    -1.1720 hc         1 4NI       0.019200
     11 H22          1.2560    -1.5020     0.5420 hc         1 4NI       0.019200
     12 H31         -0.0060     0.6290     0.9420 hc         1 4NI       0.069700
     13 H32         -0.0260     0.9390    -0.7860 hc         1 4NI       0.069700
     14 H41         -1.2680    -1.2260    -1.1560 h1         1 4NI       0.077700
     15 H42         -1.2550    -1.5220     0.5770 h1         1 4NI       0.077700
@<TRIPOS>BOND
     1     1     2 1   
     2     1     5 1   
     3     1     6 1   
     4     2     3 1   
     5     2    10 1   
     6     2    11 1   
     7     3     4 1   
     8     3    12 1   
     9     3    13 1   
    10     4     7 1   
    11     4    14 1   
    12     4    15 1   
    13     7     8 1   
    14     7     9 1   
@<TRIPOS>SUBSTRUCTURE
     1 4NI         1 TEMP              0 ****  ****    0 ROOT
