@<TRIPOS>MOLECULE
4NJ
   55    59     1     0     0
SMALL
abcg2


@<TRIPOS>ATOM
      1 C5          -1.6410    -0.2990     0.7360 c3         1 4NJ      -0.063100
      2 C6          -3.1050    -0.6230     0.7970 ca         1 4NJ      -0.092300
      3 C7          -4.0710     0.3810     0.7690 ca         1 4NJ      -0.103000
      4 C8          -5.4230     0.0800     0.8030 ca         1 4NJ      -0.101500
      5 C9          -5.8180    -1.2480     0.8670 ca         1 4NJ       0.122000
      6 C10         -4.8840    -2.2690     0.9130 ca         1 4NJ      -0.101500
      7 C11         -3.5340    -1.9470     0.8840 ca         1 4NJ      -0.103000
      8 CL1         -7.5070    -1.6320     0.9080 cl         1 4NJ      -0.197000
      9 C13         -1.0090    -0.3960    -0.6710 c5         1 4NJ       0.385600
     10 C14          0.4840    -0.1330    -0.5360 ce         1 4NJ      -0.011200
     11 C15          0.8080     0.9910    -1.1770 cf         1 4NJ      -0.150400
     12 C16         -0.4030     1.5130    -1.8590 c          1 4NJ       0.561200
     13 N18         -1.4290     0.6930    -1.5420 n          1 4NJ      -0.440800
     14 C19         -2.7130     0.7870    -2.1920 c3         1 4NJ       0.105300
     15 O20         -0.4620     2.4840    -2.5930 o          1 4NJ      -0.533000
     16 O21         -1.2040    -1.6370    -1.2630 oh         1 4NJ      -0.642000
     17 C28          2.1280     1.6670    -1.3170 c3         1 4NJ       0.029100
     18 C37          2.1180     3.0640    -0.7450 ca         1 4NJ      -0.071300
     19 C38          2.2540     4.1760    -1.5690 ca         1 4NJ      -0.089500
     20 C39          2.2520     5.4620    -1.0480 ca         1 4NJ      -0.104000
     21 C40          2.1030     5.6350     0.3190 ca         1 4NJ       0.121000
     22 C41          1.9610     4.5460     1.1640 ca         1 4NJ      -0.104000
     23 C42          1.9680     3.2690     0.6230 ca         1 4NJ      -0.089500
     24 CL2          2.0980     7.2380     0.9830 cl         1 4NJ      -0.208000
     25 C44          1.3450    -1.0010     0.2570 cc         1 4NJ      -0.108200
     26 C45          1.7480    -2.3530    -0.0210 ca         1 4NJ      -0.075800
     27 C46          2.5910    -2.7500     1.0390 ca         1 4NJ      -0.049200
     28 C48          1.9480    -0.6610     1.4400 cd         1 4NJ      -0.142100
     29 N49          2.6850    -1.7040     1.9070 na         1 4NJ      -0.214700
     30 C56          3.1880    -4.0090     1.0980 ca         1 4NJ      -0.125000
     31 C57          2.9210    -4.8610     0.0490 ca         1 4NJ       0.143000
     32 C58          2.1020    -4.4990    -1.0300 ca         1 4NJ      -0.137000
     33 C59          1.5170    -3.2510    -1.0670 ca         1 4NJ      -0.038000
     34 CL3          3.6280    -6.4490     0.0560 cl         1 4NJ      -0.208000
     35 H1          -1.4560     0.7070     1.1150 hc         1 4NJ       0.072200
     36 H2          -1.0930    -0.9860     1.3860 hc         1 4NJ       0.072200
     37 H3          -3.7670     1.4200     0.7240 ha         1 4NJ       0.124000
     38 H4          -6.1580     0.8720     0.7830 ha         1 4NJ       0.133000
     39 H5          -5.1970    -3.3020     0.9820 ha         1 4NJ       0.133000
     40 H6          -2.8080    -2.7490     0.9590 ha         1 4NJ       0.124000
     41 H7          -3.3610     1.5280    -1.7260 h1         1 4NJ       0.041367
     42 H8          -2.5800     1.0590    -3.2390 h1         1 4NJ       0.041367
     43 H9          -3.2240    -0.1730    -2.1670 h1         1 4NJ       0.041367
     44 H10         -2.1060    -1.9480    -1.1150 ho         1 4NJ       0.461000
     45 H11          2.8950     1.0670    -0.8250 hc         1 4NJ       0.067700
     46 H12          2.3920     1.7160    -2.3760 hc         1 4NJ       0.067700
     47 H13          2.3650     4.0420    -2.6370 ha         1 4NJ       0.114500
     48 H14          2.3610     6.3160    -1.7030 ha         1 4NJ       0.128000
     49 H15          1.8490     4.6860     2.2310 ha         1 4NJ       0.128000
     50 H16          1.8590     2.4230     1.2900 ha         1 4NJ       0.114500
     51 H17          1.8860     0.2560     2.0030 h4         1 4NJ       0.216000
     52 H18          3.2100    -1.6970     2.7660 hn         1 4NJ       0.356000
     53 H19          3.8280    -4.2970     1.9210 ha         1 4NJ       0.131000
     54 H20          1.9290    -5.2050    -1.8300 ha         1 4NJ       0.130000
     55 H21          0.8860    -2.9800    -1.9020 ha         1 4NJ       0.138000
@<TRIPOS>BOND
     1     1     2 1   
     2     1     9 1   
     3     1    35 1   
     4     1    36 1   
     5     2     3 ar  
     6     2     7 ar  
     7     3     4 ar  
     8     3    37 1   
     9     4     5 ar  
    10     4    38 1   
    11     5     6 ar  
    12     5     8 1   
    13     6     7 ar  
    14     6    39 1   
    15     7    40 1   
    16     9    10 1   
    17     9    13 1   
    18     9    16 1   
    19    10    11 2   
    20    10    25 1   
    21    11    12 1   
    22    11    17 1   
    23    12    13 1   
    24    12    15 2   
    25    13    14 1   
    26    14    41 1   
    27    14    42 1   
    28    14    43 1   
    29    16    44 1   
    30    17    18 1   
    31    17    45 1   
    32    17    46 1   
    33    18    19 ar  
    34    18    23 ar  
    35    19    20 ar  
    36    19    47 1   
    37    20    21 ar  
    38    20    48 1   
    39    21    22 ar  
    40    21    24 1   
    41    22    23 ar  
    42    22    49 1   
    43    23    50 1   
    44    25    26 1   
    45    25    28 2   
    46    26    27 ar  
    47    26    33 ar  
    48    27    29 1   
    49    27    30 ar  
    50    28    29 1   
    51    28    51 1   
    52    29    52 1   
    53    30    31 ar  
    54    30    53 1   
    55    31    32 ar  
    56    31    34 1   
    57    32    33 ar  
    58    32    54 1   
    59    33    55 1   
@<TRIPOS>SUBSTRUCTURE
     1 4NJ         1 TEMP              0 ****  ****    0 ROOT
