@<TRIPOS>MOLECULE
4NJ
   55    59     1     0     0
SMALL
No Charge or Current Charge


@<TRIPOS>ATOM
      1 C5          -2.2220     0.0650     0.5540 c3         1 4NJ      -0.063100
      2 C6          -3.7140    -0.2570     0.6430 ca         1 4NJ      -0.092300
      3 C7          -4.6710     0.7140     0.2840 ca         1 4NJ      -0.103000
      4 C8          -6.0440     0.4210     0.3660 ca         1 4NJ      -0.101500
      5 C9          -6.4660    -0.8400     0.8160 ca         1 4NJ       0.122000
      6 C10         -5.5200    -1.8070     1.1890 ca         1 4NJ      -0.101500
      7 C11         -4.1470    -1.5160     1.1070 ca         1 4NJ      -0.103000
      8 Cl1         -8.1840    -1.2050     0.9180 cl         1 4NJ      -0.197000
      9 C13         -1.4770    -0.4390    -0.7150 c5         1 4NJ       0.385600
     10 C14          0.0080     0.0030    -0.6920 ce         1 4NJ      -0.011200
     11 C15          0.2370     0.7560    -1.8040 cf         1 4NJ      -0.150400
     12 C16         -0.9830     0.8700    -2.6090 c          1 4NJ       0.561200
     13 N18         -1.9760     0.1540    -1.9680 n          1 4NJ      -0.440800
     14 C19         -3.3090    -0.0260    -2.5800 c3         1 4NJ       0.105300
     15 O20         -1.1110     1.4720    -3.6660 o          1 4NJ      -0.533000
     16 O21         -1.5880    -1.8480    -0.7810 oh         1 4NJ      -0.642000
     17 C28          1.5390     1.4240    -2.2300 c3         1 4NJ       0.029100
     18 C37          2.3020     2.0550    -1.0710 ca         1 4NJ      -0.071300
     19 C38          1.7340     3.1270    -0.3540 ca         1 4NJ      -0.089500
     20 C39          2.4160     3.6870     0.7400 ca         1 4NJ      -0.104000
     21 C40          3.6680     3.1780     1.1220 ca         1 4NJ       0.121000
     22 C41          4.2430     2.1150     0.4080 ca         1 4NJ      -0.104000
     23 C42          3.5630     1.5560    -0.6880 ca         1 4NJ      -0.089500
     24 Cl2          4.5140     3.8700     2.4990 cl         1 4NJ      -0.208000
     25 C44          0.9730    -0.3420     0.3460 cc         1 4NJ      -0.108200
     26 C45          2.0180    -1.3160     0.2440 ca         1 4NJ      -0.075800
     27 C46          2.7600    -1.2620     1.3890 ca         1 4NJ      -0.049200
     28 C48          1.1560     0.2790     1.5790 cd         1 4NJ      -0.142100
     29 N49          2.2600    -0.3030     2.2490 na         1 4NJ      -0.214700
     30 C56          3.8760    -2.0890     1.5750 ca         1 4NJ      -0.125000
     31 C57          4.2140    -2.9870     0.5420 ca         1 4NJ       0.143000
     32 C58          3.4440    -3.0430    -0.6430 ca         1 4NJ      -0.137000
     33 C59          2.3270    -2.1950    -0.8030 ca         1 4NJ      -0.038000
     34 Cl3          5.6060    -4.0450     0.7270 cl         1 4NJ      -0.208000
     35 H1          -2.0800     1.1490     0.6310 hc         1 4NJ       0.072200
     36 H2          -1.7230    -0.3470     1.4400 hc         1 4NJ       0.072200
     37 H3          -4.3520     1.6940    -0.0650 ha         1 4NJ       0.124000
     38 H4          -6.7790     1.1700     0.0820 ha         1 4NJ       0.133000
     39 H5          -5.8510    -2.7790     1.5450 ha         1 4NJ       0.133000
     40 H6          -3.4210    -2.2680     1.4110 ha         1 4NJ       0.124000
     41 H7          -3.8620     0.9210    -2.5440 h1         1 4NJ       0.041367
     42 H8          -3.1970    -0.3360    -3.6270 h1         1 4NJ       0.041367
     43 H9          -3.8780    -0.7960    -2.0450 h1         1 4NJ       0.041367
     44 H10         -2.5480    -2.0240    -0.8410 ho         1 4NJ       0.461000
     45 H11          2.1700     0.6840    -2.7370 hc         1 4NJ       0.067700
     46 H12          1.3420     2.1990    -2.9810 hc         1 4NJ       0.067700
     47 H13          0.7590     3.5180    -0.6390 ha         1 4NJ       0.114500
     48 H14          1.9730     4.5100     1.2950 ha         1 4NJ       0.128000
     49 H15          5.2110     1.7200     0.7080 ha         1 4NJ       0.128000
     50 H16          4.0090     0.7220    -1.2240 ha         1 4NJ       0.114500
     51 H17          0.5960     1.1010     2.0150 h4         1 4NJ       0.216000
     52 H18          2.6270    -0.0470     3.1620 hn         1 4NJ       0.356000
     53 H19          4.4680    -2.0400     2.4850 ha         1 4NJ       0.131000
     54 H20          3.7160    -3.7380    -1.4330 ha         1 4NJ       0.130000
     55 H21          1.7260    -2.2210    -1.7090 ha         1 4NJ       0.138000
@<TRIPOS>BOND
     1     1     2 1   
     2     1     9 1   
     3     1    35 1   
     4     1    36 1   
     5     2     3 ar  
     6     2     7 ar  
     7     3     4 ar  
     8     3    37 1   
     9     4     5 ar  
    10     4    38 1   
    11     5     6 ar  
    12     5     8 1   
    13     6     7 ar  
    14     6    39 1   
    15     7    40 1   
    16     9    10 1   
    17     9    13 1   
    18     9    16 1   
    19    10    11 2   
    20    10    25 1   
    21    11    12 1   
    22    11    17 1   
    23    12    13 1   
    24    12    15 2   
    25    13    14 1   
    26    14    41 1   
    27    14    42 1   
    28    14    43 1   
    29    16    44 1   
    30    17    18 1   
    31    17    45 1   
    32    17    46 1   
    33    18    19 ar  
    34    18    23 ar  
    35    19    20 ar  
    36    19    47 1   
    37    20    21 ar  
    38    20    48 1   
    39    21    22 ar  
    40    21    24 1   
    41    22    23 ar  
    42    22    49 1   
    43    23    50 1   
    44    25    26 1   
    45    25    28 2   
    46    26    27 ar  
    47    26    33 ar  
    48    27    29 1   
    49    27    30 ar  
    50    28    29 1   
    51    28    51 1   
    52    29    52 1   
    53    30    31 ar  
    54    30    53 1   
    55    31    32 ar  
    56    31    34 1   
    57    32    33 ar  
    58    32    54 1   
    59    33    55 1   
@<TRIPOS>SUBSTRUCTURE
     1 4NJ         1 TEMP              0 ****  ****    0 ROOT
