@<TRIPOS>MOLECULE
4NK
   57    57     1     0     0
SMALL
abcg2


@<TRIPOS>ATOM
      1 OXT         -7.0460     2.8590    -1.8610 o          1 4NK      -0.660500
      2 C           -7.2660     2.8450    -0.6470 c          1 4NK       0.717000
      3 O           -8.2740     3.2520    -0.0320 o          1 4NK      -0.660500
      4 CA          -6.1290     2.2810     0.2520 c3         1 4NK      -0.060700
      5 N           -6.6960     2.1630     1.6260 nz         1 4NK      -0.989000
      6 CB          -5.5520     0.9660    -0.2380 c3         1 4NK      -0.076400
      7 CAN         -4.3910     0.4800     0.6170 c3         1 4NK      -0.182400
      8 CAU         -3.7690    -0.8030     0.1030 c          1 4NK       0.610100
      9 OAE         -4.3570    -1.5590    -0.6540 o          1 4NK      -0.589100
     10 NAS         -2.5160    -1.0240     0.5450 ns         1 4NK      -0.474900
     11 CBB         -1.8730    -2.3090     0.4400 c3         1 4NK      -0.053300
     12 CAW         -2.2870    -3.2990     1.5720 c          1 4NK       0.725000
     13 OAK         -3.2300    -2.9540     2.2970 o          1 4NK      -0.710000
     14 OAG         -1.6300    -4.3550     1.6130 o          1 4NK      -0.710000
     15 CAQ         -0.3650    -2.1240     0.4150 c3         1 4NK       0.027900
     16 SBD          0.0800    -1.0220    -0.9680 sx         1 4NK       0.129100
     17 OAI         -0.2520    -1.7780    -2.2310 o          1 4NK      -0.522000
     18 CAZ          1.8410    -1.1710    -0.7860 cc         1 4NK       0.460100
     19 NAR          2.5770    -0.4730     0.0330 nd         1 4NK      -0.640000
     20 NAT          2.5620    -2.0320    -1.5220 na         1 4NK      -0.253500
     21 CAM          3.8620    -1.8810    -1.1420 cc         1 4NK      -0.232000
     22 CAY          3.8560    -0.9110    -0.1740 cd         1 4NK       0.201300
     23 CAP          5.0090    -0.3560     0.5900 c3         1 4NK      -0.105700
     24 CBC          5.2020     1.1620     0.5370 c3         1 4NK      -0.033700
     25 CAX          6.1950     1.5370     1.6810 c          1 4NK       0.712000
     26 OAL          7.3990     1.2920     1.4910 o          1 4NK      -0.672000
     27 OAH          5.6560     1.9850     2.7020 o          1 4NK      -0.672000
     28 NBE          5.6260     1.7050    -0.8290 n4         1 4NK      -0.467000
     29 CAB          4.4720     1.7090    -1.7770 c3         1 4NK       0.078900
     30 CAC          6.0560     3.1250    -0.6620 c3         1 4NK       0.078900
     31 CAA          6.7360     0.9340    -1.4570 c3         1 4NK       0.078900
     32 HA          -5.3410     3.0350     0.3090 hx         1 4NK       0.075700
     33 H2          -6.0980     2.5350     2.3590 hn         1 4NK       0.495667
     34 H3          -7.5770     2.7100     1.5770 hn         1 4NK       0.495667
     35 HB2         -6.3400     0.2100    -0.2800 hc         1 4NK       0.094200
     36 HB1         -5.2160     1.1260    -1.2620 hc         1 4NK       0.094200
     37 HAO         -3.6240     1.2560     0.6930 hc         1 4NK       0.040700
     38 HAN         -4.7160     0.2780     1.6440 hc         1 4NK       0.040700
     39 HAS         -2.1840    -0.4170     1.2800 hn         1 4NK       0.286500
     40 HBB         -2.1780    -2.7590    -0.5080 h1         1 4NK       0.091700
     41 HAQ          0.0090    -1.6490     1.3260 h1         1 4NK       0.095700
     42 HB4          0.1440    -3.0750     0.2710 h1         1 4NK       0.095700
     43 HAT          2.2040    -2.6630    -2.2250 hn         1 4NK       0.382000
     44 HAM          4.6630    -2.4490    -1.5850 h4         1 4NK       0.152000
     45 HB3          4.8500    -0.5780     1.6490 hc         1 4NK       0.083200
     46 HAP          5.9270    -0.8770     0.3180 hc         1 4NK       0.083200
     47 HBC          4.2490     1.6530     0.7360 hx         1 4NK       0.095700
     48 HAF          3.6340     2.2350    -1.3290 hx         1 4NK       0.082811
     49 HAE          4.7790     2.2160    -2.6870 hx         1 4NK       0.082811
     50 HAD          4.1860     0.6930    -2.0210 hx         1 4NK       0.082811
     51 HAI          6.9830     3.1640    -0.1030 hx         1 4NK       0.082811
     52 HAH          6.2080     3.5640    -1.6450 hx         1 4NK       0.082811
     53 HAG          5.2750     3.6730    -0.1400 hx         1 4NK       0.082811
     54 HAA          6.3840    -0.0590    -1.7190 hx         1 4NK       0.082811
     55 HAC          7.0360     1.4520    -2.3650 hx         1 4NK       0.082811
     56 HAB          7.5640     0.8720    -0.7610 hx         1 4NK       0.082811
     57 H6          -6.9420     1.2080     1.8790 hn         1 4NK       0.495667
@<TRIPOS>BOND
     1     1     2 1   
     2     2     3 1   
     3     2     4 1   
     4     4     5 1   
     5     4     6 1   
     6     4    32 1   
     7     5    33 1   
     8     5    34 1   
     9     5    57 1   
    10     6     7 1   
    11     6    35 1   
    12     6    36 1   
    13     7     8 1   
    14     7    37 1   
    15     7    38 1   
    16     8     9 2   
    17     8    10 1   
    18    10    11 1   
    19    10    39 1   
    20    11    12 1   
    21    11    15 1   
    22    11    40 1   
    23    12    13 1   
    24    12    14 1   
    25    15    16 1   
    26    15    41 1   
    27    15    42 1   
    28    16    17 2   
    29    16    18 1   
    30    18    19 2   
    31    18    20 1   
    32    19    22 1   
    33    20    21 1   
    34    20    43 1   
    35    21    22 2   
    36    21    44 1   
    37    22    23 1   
    38    23    24 1   
    39    23    45 1   
    40    23    46 1   
    41    24    25 1   
    42    24    28 1   
    43    24    47 1   
    44    25    26 1   
    45    25    27 1   
    46    28    29 1   
    47    28    30 1   
    48    28    31 1   
    49    29    48 1   
    50    29    49 1   
    51    29    50 1   
    52    30    51 1   
    53    30    52 1   
    54    30    53 1   
    55    31    54 1   
    56    31    55 1   
    57    31    56 1   
@<TRIPOS>SUBSTRUCTURE
     1 4NK         1 TEMP              0 ****  ****    0 ROOT
