@<TRIPOS>MOLECULE
4NK
   57    57     1     0     0
SMALL
No Charge or Current Charge


@<TRIPOS>ATOM
      1 OXT         -3.2300     4.2840     1.4440 o          1 4NK      -0.660500
      2 C           -3.9420     3.7990     0.5780 c          1 4NK       0.717000
      3 O           -4.2210     4.3600    -0.4740 o          1 4NK      -0.660500
      4 CA          -4.7000     2.4650     0.9170 c3         1 4NK      -0.060700
      5 N           -6.1940     2.5070     0.5700 nz         1 4NK      -0.989000
      6 CB          -4.0110     1.2550     0.2450 c3         1 4NK      -0.076400
      7 CAN         -4.5950    -0.1120     0.6820 c3         1 4NK      -0.182400
      8 CAU         -3.7900    -1.2760     0.0920 c          1 4NK       0.610100
      9 OAE         -3.8630    -1.5910    -1.0860 o          1 4NK      -0.589100
     10 NAS         -3.0100    -1.9590     1.0020 ns         1 4NK      -0.474900
     11 CBB         -2.1190    -3.1070     0.6860 c3         1 4NK      -0.053300
     12 CAW         -2.2910    -4.2270     1.7480 c          1 4NK       0.725000
     13 OAK         -1.8880    -4.0180     2.8840 o          1 4NK      -0.710000
     14 OAG         -2.8450    -5.2630     1.4080 o          1 4NK      -0.710000
     15 CAQ         -0.6380    -2.6720     0.5810 c3         1 4NK       0.027900
     16 SBD         -0.3170    -1.5720    -0.8870 sx         1 4NK       0.129100
     17 OAI         -0.3560    -2.4360    -2.1410 o          1 4NK      -0.522000
     18 CAZ          1.4570    -1.3040    -0.5230 cc         1 4NK       0.460100
     19 NAR          2.0550    -0.3270     0.1410 nd         1 4NK      -0.640000
     20 NAT          2.3750    -2.2200    -0.9730 na         1 4NK      -0.253500
     21 CAM          3.6240    -1.8020    -0.5600 cc         1 4NK      -0.232000
     22 CAY          3.3980    -0.6320     0.1180 cd         1 4NK       0.201300
     23 CAP          4.4190     0.2540     0.7710 c3         1 4NK      -0.105700
     24 CBC          4.5010     1.6940     0.1810 c3         1 4NK      -0.033700
     25 CAX          5.2150     2.6170     1.2170 c          1 4NK       0.712000
     26 OAL          6.3700     2.3640     1.5330 o          1 4NK      -0.672000
     27 OAH          4.5970     3.5860     1.6340 o          1 4NK      -0.672000
     28 NBE          4.9820     1.8340    -1.3030 n4         1 4NK      -0.467000
     29 CAB          3.9750     1.2040    -2.2740 c3         1 4NK       0.078900
     30 CAC          5.1020     3.3220    -1.6600 c3         1 4NK       0.078900
     31 CAA          6.3520     1.1710    -1.4990 c3         1 4NK       0.078900
     32 HA          -4.6150     2.3460     2.0010 hx         1 4NK       0.075700
     33 H2          -6.7020     1.6420     0.8070 hn         1 4NK       0.495667
     34 H3          -6.6980     3.2690     1.0520 hn         1 4NK       0.495667
     35 HB2         -4.0750     1.3550    -0.8460 hc         1 4NK       0.094200
     36 HB1         -2.9420     1.2800     0.4970 hc         1 4NK       0.094200
     37 HAO         -4.5790    -0.1610     1.7770 hc         1 4NK       0.040700
     38 HAN         -5.6280    -0.1880     0.3210 hc         1 4NK       0.040700
     39 HAS         -3.0530    -1.6370     1.9620 hn         1 4NK       0.286500
     40 HBB         -2.4190    -3.5420    -0.2760 h1         1 4NK       0.091700
     41 HAQ         -0.3400    -2.1220     1.4820 h1         1 4NK       0.095700
     42 HB4          0.0080    -3.5520     0.4760 h1         1 4NK       0.095700
     43 HAT          2.1460    -3.0400    -1.5230 hn         1 4NK       0.382000
     44 HAM          4.5420    -2.3380    -0.7750 h4         1 4NK       0.152000
     45 HB3          4.1680     0.3290     1.8360 hc         1 4NK       0.083200
     46 HAP          5.4070    -0.2170     0.7340 hc         1 4NK       0.083200
     47 HBC          3.4780     2.0750     0.1800 hx         1 4NK       0.095700
     48 HAF          2.9850     1.6220    -2.0820 hx         1 4NK       0.082811
     49 HAE          4.2790     1.4260    -3.2990 hx         1 4NK       0.082811
     50 HAD          3.9570     0.1240    -2.1290 hx         1 4NK       0.082811
     51 HAI          5.8470     3.7890    -1.0130 hx         1 4NK       0.082811
     52 HAH          5.4100     3.4170    -2.7030 hx         1 4NK       0.082811
     53 HAG          4.1330     3.8030    -1.5150 hx         1 4NK       0.082811
     54 HAA          6.2680     0.1040    -1.2870 hx         1 4NK       0.082811
     55 HAC          6.6780     1.3170    -2.5310 hx         1 4NK       0.082811
     56 HAB          7.0720     1.6280    -0.8170 hx         1 4NK       0.082811
     57 H6          -6.3610     2.6760    -0.4350 hn         1 4NK       0.495667
@<TRIPOS>BOND
     1     1     2 1   
     2     2     3 1   
     3     2     4 1   
     4     4     5 1   
     5     4     6 1   
     6     4    32 1   
     7     5    33 1   
     8     5    34 1   
     9     5    57 1   
    10     6     7 1   
    11     6    35 1   
    12     6    36 1   
    13     7     8 1   
    14     7    37 1   
    15     7    38 1   
    16     8     9 2   
    17     8    10 1   
    18    10    11 1   
    19    10    39 1   
    20    11    12 1   
    21    11    15 1   
    22    11    40 1   
    23    12    13 1   
    24    12    14 1   
    25    15    16 1   
    26    15    41 1   
    27    15    42 1   
    28    16    17 2   
    29    16    18 1   
    30    18    19 2   
    31    18    20 1   
    32    19    22 1   
    33    20    21 1   
    34    20    43 1   
    35    21    22 2   
    36    21    44 1   
    37    22    23 1   
    38    23    24 1   
    39    23    45 1   
    40    23    46 1   
    41    24    25 1   
    42    24    28 1   
    43    24    47 1   
    44    25    26 1   
    45    25    27 1   
    46    28    29 1   
    47    28    30 1   
    48    28    31 1   
    49    29    48 1   
    50    29    49 1   
    51    29    50 1   
    52    30    51 1   
    53    30    52 1   
    54    30    53 1   
    55    31    54 1   
    56    31    55 1   
    57    31    56 1   
@<TRIPOS>SUBSTRUCTURE
     1 4NK         1 TEMP              0 ****  ****    0 ROOT
