@<TRIPOS>MOLECULE
4NL
   15    15     1     0     0
SMALL
abcg2


@<TRIPOS>ATOM
      1 C2           2.8730    -1.6610     0.6180 ca         1 4NL      -0.133000
      2 C6           0.7950    -0.4840     0.5630 ca         1 4NL      -0.133000
      3 C3           2.8630    -1.6210     2.0040 ca         1 4NL      -0.136000
      4 C4           1.8160    -1.0110     2.6860 ca         1 4NL       0.098100
      5 C5           0.7840    -0.4400     1.9500 ca         1 4NL      -0.136000
      6 C1           1.8390    -1.0970    -0.1340 ca         1 4NL       0.240000
      7 N1           1.8180    -1.1940    -1.5210 nv         1 4NL      -1.055000
      8 O1           1.8530    -0.9970     4.0430 oh         1 4NL      -0.538100
      9 H2           3.6800    -2.0670     2.5580 ha         1 4NL       0.118000
     10 H6           1.3330    -0.4400    -1.9820 hn         1 4NL       0.435000
     11 H3          -0.0440     0.0450     2.4550 ha         1 4NL       0.118000
     12 H5           1.0550    -0.5860     4.3910 ho         1 4NL       0.460000
     13 H4          -0.0250    -0.0350     0.0160 ha         1 4NL       0.112500
     14 H1           3.7030    -2.1400     0.1120 ha         1 4NL       0.112500
     15 H7           2.7250    -1.3310    -1.9390 hn         1 4NL       0.435000
@<TRIPOS>BOND
     1     1     3 ar  
     2     1     6 ar  
     3     1    14 1   
     4     2     5 ar  
     5     2     6 ar  
     6     2    13 1   
     7     3     4 ar  
     8     3     9 1   
     9     4     5 ar  
    10     4     8 1   
    11     5    11 1   
    12     6     7 1   
    13     7    10 1   
    14     7    15 1   
    15     8    12 1   
@<TRIPOS>SUBSTRUCTURE
     1 4NL         1 TEMP              0 ****  ****    0 ROOT
