@<TRIPOS>MOLECULE
4NL
   15    15     1     0     0
SMALL
No Charge or Current Charge


@<TRIPOS>ATOM
      1 C2           2.9130    -1.6530     0.6080 ca         1 4NL      -0.133000
      2 C6           0.8040    -0.4480     0.5640 ca         1 4NL      -0.133000
      3 C3           2.8910    -1.6410     2.0160 ca         1 4NL      -0.136000
      4 C4           1.8250    -1.0320     2.6970 ca         1 4NL       0.098100
      5 C5           0.7790    -0.4340     1.9720 ca         1 4NL      -0.136000
      6 C1           1.8700    -1.0560    -0.1200 ca         1 4NL       0.240000
      7 N1           1.8920    -1.0680    -1.4900 nv         1 4NL      -1.055000
      8 O1           1.8100    -1.0240     4.0600 oh         1 4NL      -0.538100
      9 H2           3.7000    -2.1030     2.5760 ha         1 4NL       0.118000
     10 H6           1.1930    -0.5510    -2.0210 hn         1 4NL       0.435000
     11 H3          -0.0520     0.0400     2.4890 ha         1 4NL       0.118000
     12 H5           1.0000    -0.5610     4.3640 ho         1 4NL       0.460000
     13 H4          -0.0070     0.0160     0.0080 ha         1 4NL       0.112500
     14 H1           3.7420    -2.1270     0.0880 ha         1 4NL       0.112500
     15 H7           2.7090    -1.4180    -1.9900 hn         1 4NL       0.435000
@<TRIPOS>BOND
     1     1     3 ar  
     2     1     6 ar  
     3     1    14 1   
     4     2     5 ar  
     5     2     6 ar  
     6     2    13 1   
     7     3     4 ar  
     8     3     9 1   
     9     4     5 ar  
    10     4     8 1   
    11     5    11 1   
    12     6     7 1   
    13     7    10 1   
    14     7    15 1   
    15     8    12 1   
@<TRIPOS>SUBSTRUCTURE
     1 4NL         1 TEMP              0 ****  ****    0 ROOT
