@<TRIPOS>MOLECULE
4NN
   25    25     1     0     0
SMALL
abcg2


@<TRIPOS>ATOM
      1 C1          16.7790    -7.0090   -16.7350 c          1 4NN       0.675300
      2 O1          16.4500    -7.8890   -17.5050 o          1 4NN      -0.519000
      3 C2          16.2960    -5.6090   -16.8930 ce         1 4NN      -0.026600
      4 N2          15.3230    -5.5130   -17.8850 ns         1 4NN      -0.407100
      5 C3          16.8220    -4.6150   -16.1690 c2         1 4NN      -0.205200
      6 C4          17.8560    -4.8970   -15.1310 c6         1 4NN       0.190500
      7 O4          19.1270    -4.5390   -15.6960 oh         1 4NN      -0.644000
      8 C5          17.8400    -6.3490   -14.6620 c6         1 4NN       0.155300
      9 O5          17.6470    -7.2800   -15.7620 os         1 4NN      -0.421100
     10 C6          16.8490    -6.6690   -13.5590 c3         1 4NN       0.139600
     11 O6          15.5180    -6.4250   -13.9980 oh         1 4NN      -0.659000
     12 C7          14.6080    -4.4140   -18.2620 c          1 4NN       0.605100
     13 O7          14.7800    -3.3050   -17.7700 o          1 4NN      -0.589100
     14 C8          13.5670    -4.6670   -19.3250 c3         1 4NN      -0.174100
     15 HN2         15.1210    -6.3910   -18.3440 hn         1 4NN       0.342500
     16 H3          16.5340    -3.5910   -16.3400 ha         1 4NN       0.230000
     17 H4          17.6630    -4.2710   -14.2540 h1         1 4NN       0.056700
     18 HO4         19.7580    -4.4240   -14.9730 ho         1 4NN       0.440000
     19 H5          18.8310    -6.5950   -14.2800 h1         1 4NN       0.083700
     20 H6          16.9760    -7.7180   -13.2770 h1         1 4NN       0.039700
     21 H6A         17.1030    -6.0450   -12.6940 h1         1 4NN       0.039700
     22 HO6         14.9130    -6.8600   -13.3860 ho         1 4NN       0.453000
     23 H8          13.6610    -3.9040   -20.0980 hc         1 4NN       0.066033
     24 H8A         13.6450    -5.6550   -19.7750 hc         1 4NN       0.066033
     25 H8B         12.5790    -4.5630   -18.8700 hc         1 4NN       0.066033
@<TRIPOS>BOND
     1     1     2 2   
     2     1     3 1   
     3     1     9 1   
     4     3     4 1   
     5     3     5 2   
     6     4    12 1   
     7     4    15 1   
     8     5     6 1   
     9     5    16 1   
    10     6     7 1   
    11     6     8 1   
    12     6    17 1   
    13     7    18 1   
    14     8     9 1   
    15     8    10 1   
    16     8    19 1   
    17    10    11 1   
    18    10    20 1   
    19    10    21 1   
    20    11    22 1   
    21    12    13 2   
    22    12    14 1   
    23    14    23 1   
    24    14    24 1   
    25    14    25 1   
@<TRIPOS>SUBSTRUCTURE
     1 4NN         1 TEMP              0 ****  ****    0 ROOT
