@<TRIPOS>MOLECULE
4NN
   25    25     1     0     0
SMALL
No Charge or Current Charge


@<TRIPOS>ATOM
      1 C1          16.7890    -7.0510   -16.7450 c          1 4NN       0.675300
      2 O1          16.4200    -7.9390   -17.5050 o          1 4NN      -0.519000
      3 C2          16.3140    -5.6030   -16.8640 ce         1 4NN      -0.026600
      4 N2          15.2890    -5.4480   -17.8450 ns         1 4NN      -0.407100
      5 C3          16.8520    -4.6200   -16.1030 c2         1 4NN      -0.205200
      6 C4          17.9760    -4.9000   -15.1360 c6         1 4NN       0.190500
      7 O4          19.2010    -4.6850   -15.8510 oh         1 4NN      -0.644000
      8 C5          17.8740    -6.3700   -14.6270 c6         1 4NN       0.155300
      9 O5          17.6860    -7.3020   -15.7270 os         1 4NN      -0.421100
     10 C6          16.7510    -6.5960   -13.5520 c3         1 4NN       0.139600
     11 O6          15.4050    -6.5720   -14.0640 oh         1 4NN      -0.659000
     12 C7          14.5820    -4.3450   -18.2780 c          1 4NN       0.605100
     13 O7          14.7490    -3.2180   -17.8350 o          1 4NN      -0.589100
     14 C8          13.5580    -4.6400   -19.3670 c3         1 4NN      -0.174100
     15 HN2         15.0420    -6.3200   -18.3040 hn         1 4NN       0.342500
     16 H3          16.5310    -3.5830   -16.1700 ha         1 4NN       0.230000
     17 H4          17.9070    -4.2110   -14.2800 h1         1 4NN       0.056700
     18 HO4         19.9310    -4.7270   -15.1950 ho         1 4NN       0.440000
     19 H5          18.8210    -6.6250   -14.1310 h1         1 4NN       0.083700
     20 H6          16.9440    -7.5680   -13.0780 h1         1 4NN       0.039700
     21 H6A         16.8700    -5.8340   -12.7690 h1         1 4NN       0.039700
     22 HO6         14.8020    -6.7430   -13.3060 ho         1 4NN       0.453000
     23 H8          13.0150    -3.7440   -19.6880 hc         1 4NN       0.066033
     24 H8A         14.0620    -5.1300   -20.2080 hc         1 4NN       0.066033
     25 H8B         12.8760    -5.4220   -19.0150 hc         1 4NN       0.066033
@<TRIPOS>BOND
     1     1     2 2   
     2     1     3 1   
     3     1     9 1   
     4     3     4 1   
     5     3     5 2   
     6     4    12 1   
     7     4    15 1   
     8     5     6 1   
     9     5    16 1   
    10     6     7 1   
    11     6     8 1   
    12     6    17 1   
    13     7    18 1   
    14     8     9 1   
    15     8    10 1   
    16     8    19 1   
    17    10    11 1   
    18    10    20 1   
    19    10    21 1   
    20    11    22 1   
    21    12    13 2   
    22    12    14 1   
    23    14    23 1   
    24    14    24 1   
    25    14    25 1   
@<TRIPOS>SUBSTRUCTURE
     1 4NN         1 TEMP              0 ****  ****    0 ROOT
