@<TRIPOS>MOLECULE
4NO
   19    19     1     0     0
SMALL
abcg2


@<TRIPOS>ATOM
      1 O16         -3.7070     5.1500     3.4300 o          1 4NO      -0.924167
      2 P13         -4.5300     3.8670     3.3480 p5         1 4NO       1.167000
      3 O15         -5.9540     4.0240     3.8870 o          1 4NO      -0.924167
      4 O14         -4.4730     3.1760     1.9840 o          1 4NO      -0.924167
      5 C4          -3.7360     2.6480     4.5320 ca         1 4NO      -0.102500
      6 C3          -4.6000     1.8520     5.2860 ca         1 4NO      -0.025000
      7 C2          -4.1170     0.8930     6.1710 ca         1 4NO      -0.249200
      8 N1          -5.0550     0.0840     6.9290 no         1 4NO       0.685200
      9 O8          -4.6100    -0.7630     7.7050 o          1 4NO      -0.501000
     10 O9          -6.2600     0.2680     6.7720 o          1 4NO      -0.501000
     11 C7          -2.7520     0.6950     6.3540 ca         1 4NO      -0.121000
     12 C6          -1.8860     1.4860     5.6250 ca         1 4NO      -0.165000
     13 C5          -2.3510     2.4490     4.7150 ca         1 4NO       0.007400
     14 C10         -1.2610     3.2160     3.9830 c          1 4NO       0.739600
     15 O11         -1.0110     2.8530     2.8090 o          1 4NO      -0.737000
     16 O12         -0.6550     4.0890     4.6500 o          1 4NO      -0.737000
     17 H3          -5.6630     1.9980     5.1790 ha         1 4NO       0.155000
     18 H4          -2.3890    -0.0490     7.0480 ha         1 4NO       0.077000
     19 H5          -0.8190     1.3610     5.7610 ha         1 4NO       0.080000
@<TRIPOS>BOND
     1     1     2 1   
     2     2     3 1   
     3     2     4 1   
     4     2     5 1   
     5     5     6 ar  
     6     5    13 ar  
     7     6     7 ar  
     8     6    17 1   
     9     7     8 1   
    10     7    11 ar  
    11     8     9 1   
    12     8    10 1   
    13    11    12 ar  
    14    11    18 1   
    15    12    13 ar  
    16    12    19 1   
    17    13    14 1   
    18    14    15 1   
    19    14    16 1   
@<TRIPOS>SUBSTRUCTURE
     1 4NO         1 TEMP              0 ****  ****    0 ROOT
