@<TRIPOS>MOLECULE
4NO
   19    19     1     0     0
SMALL
No Charge or Current Charge


@<TRIPOS>ATOM
      1 O16         -3.6750     5.1320     3.4280 o          1 4NO      -0.924167
      2 P13         -4.4560     3.8630     3.3860 p5         1 4NO       1.167000
      3 O15         -5.8760     4.1300     3.7560 o          1 4NO      -0.924167
      4 O14         -4.4130     3.3000     2.0060 o          1 4NO      -0.924167
      5 C4          -3.7360     2.6220     4.5460 ca         1 4NO      -0.102500
      6 C3          -4.6240     1.8170     5.2920 ca         1 4NO      -0.025000
      7 C2          -4.1440     0.8530     6.2110 ca         1 4NO      -0.249200
      8 N1          -5.1060     0.0100     6.9950 no         1 4NO       0.685200
      9 O8          -4.6490    -0.8180     7.7940 o          1 4NO      -0.501000
     10 O9          -6.3190     0.1750     6.8090 o          1 4NO      -0.501000
     11 C7          -2.7500     0.7040     6.3750 ca         1 4NO      -0.121000
     12 C6          -1.8640     1.4970     5.6320 ca         1 4NO      -0.165000
     13 C5          -2.3390     2.4560     4.7100 ca         1 4NO       0.007400
     14 C10         -1.3310     3.2700     3.9230 c          1 4NO       0.739600
     15 O11         -1.0640     2.9100     2.7830 o          1 4NO      -0.737000
     16 O12         -0.6510     4.0870     4.5350 o          1 4NO      -0.737000
     17 H3          -5.6950     1.9490     5.1510 ha         1 4NO       0.155000
     18 H4          -2.3450    -0.0260     7.0730 ha         1 4NO       0.077000
     19 H5          -0.7920     1.3660     5.7640 ha         1 4NO       0.080000
@<TRIPOS>BOND
     1     1     2 1   
     2     2     3 1   
     3     2     4 1   
     4     2     5 1   
     5     5     6 ar  
     6     5    13 ar  
     7     6     7 ar  
     8     6    17 1   
     9     7     8 1   
    10     7    11 ar  
    11     8     9 1   
    12     8    10 1   
    13    11    12 ar  
    14    11    18 1   
    15    12    13 ar  
    16    12    19 1   
    17    13    14 1   
    18    14    15 1   
    19    14    16 1   
@<TRIPOS>SUBSTRUCTURE
     1 4NO         1 TEMP              0 ****  ****    0 ROOT
