@<TRIPOS>MOLECULE
4NP
   18    18     1     0     0
SMALL
abcg2


@<TRIPOS>ATOM
      1 P            2.9320    -0.2940     0.2150 p5         1 4NP       1.235900
      2 O1           1.6790     0.4310    -0.8470 os         1 4NP      -0.379500
      3 O2           2.4420     0.1130     1.5910 o          1 4NP      -0.880833
      4 O3           4.1520     0.4240    -0.3120 o          1 4NP      -0.880833
      5 O4           2.8360    -1.7770    -0.1000 o          1 4NP      -0.880833
      6 C1           0.3950     0.2740    -0.5890 ca         1 4NP       0.363100
      7 C2          -0.1990    -0.9670    -0.3000 ca         1 4NP      -0.227000
      8 C3          -1.5520    -1.0600    -0.0710 ca         1 4NP      -0.023000
      9 C4          -2.3520     0.0770    -0.1410 ca         1 4NP      -0.314200
     10 C5          -1.7930     1.3180    -0.4330 ca         1 4NP      -0.023000
     11 C6          -0.4330     1.4110    -0.6430 ca         1 4NP      -0.227000
     12 N           -3.7690    -0.0360     0.0810 no         1 4NP       0.716200
     13 O5          -4.4610     0.9440    -0.0910 o          1 4NP      -0.487500
     14 O6          -4.2130    -1.1030     0.4530 o          1 4NP      -0.487500
     15 H21          0.4280    -1.8450    -0.2410 ha         1 4NP       0.143000
     16 H31         -1.9790    -2.0270     0.1520 ha         1 4NP       0.106000
     17 H51         -2.4040     2.2080    -0.4870 ha         1 4NP       0.106000
     18 H61          0.0060     2.3700    -0.8780 ha         1 4NP       0.143000
@<TRIPOS>BOND
     1     1     2 1   
     2     1     3 1   
     3     1     4 1   
     4     1     5 1   
     5     2     6 1   
     6     6     7 ar  
     7     6    11 ar  
     8     7     8 ar  
     9     7    15 1   
    10     8     9 ar  
    11     8    16 1   
    12     9    10 ar  
    13     9    12 1   
    14    10    11 ar  
    15    10    17 1   
    16    11    18 1   
    17    12    13 1   
    18    12    14 1   
@<TRIPOS>SUBSTRUCTURE
     1 4NP         1 TEMP              0 ****  ****    0 ROOT
