@<TRIPOS>MOLECULE
4NP
   18    18     1     0     0
SMALL
No Charge or Current Charge


@<TRIPOS>ATOM
      1 P            2.9460    -0.3490    -0.0240 p5         1 4NP       1.235900
      2 O1           1.7390     0.6590    -0.3770 os         1 4NP      -0.379500
      3 O2           2.8750    -0.7500     1.4090 o          1 4NP      -0.880833
      4 O3           4.2430     0.3410    -0.2720 o          1 4NP      -0.880833
      5 O4           2.8680    -1.5620    -0.8860 o          1 4NP      -0.880833
      6 C1           0.3920     0.4250    -0.2910 ca         1 4NP       0.363100
      7 C2          -0.1590    -0.7980     0.1440 ca         1 4NP      -0.227000
      8 C3          -1.5520    -0.9680     0.2080 ca         1 4NP      -0.023000
      9 C4          -2.4170     0.0860    -0.1630 ca         1 4NP      -0.314200
     10 C5          -1.8630     1.3110    -0.5980 ca         1 4NP      -0.023000
     11 C6          -0.4690     1.4700    -0.6580 ca         1 4NP      -0.227000
     12 N           -3.9030    -0.0920    -0.0950 no         1 4NP       0.716200
     13 O5          -4.6230     0.8570    -0.4290 o          1 4NP      -0.487500
     14 O6          -4.3460    -1.1810     0.2920 o          1 4NP      -0.487500
     15 H21          0.4800    -1.6240     0.4350 ha         1 4NP       0.143000
     16 H31         -1.9490    -1.9230     0.5470 ha         1 4NP       0.106000
     17 H51         -2.5010     2.1430    -0.8900 ha         1 4NP       0.106000
     18 H61         -0.0480     2.4130    -0.9930 ha         1 4NP       0.143000
@<TRIPOS>BOND
     1     1     2 1   
     2     1     3 1   
     3     1     4 1   
     4     1     5 1   
     5     2     6 1   
     6     6     7 ar  
     7     6    11 ar  
     8     7     8 ar  
     9     7    15 1   
    10     8     9 ar  
    11     8    16 1   
    12     9    10 ar  
    13     9    12 1   
    14    10    11 ar  
    15    10    17 1   
    16    11    18 1   
    17    12    13 1   
    18    12    14 1   
@<TRIPOS>SUBSTRUCTURE
     1 4NP         1 TEMP              0 ****  ****    0 ROOT
