@<TRIPOS>MOLECULE
4NR
   28    30     1     0     0
SMALL
No Charge or Current Charge


@<TRIPOS>ATOM
      1 CAF         -2.4420     1.2460    -0.7260 ca         1 4NR      -0.098000
      2 CAD         -3.8010     0.9140    -0.5830 ca         1 4NR      -0.150000
      3 CAL         -4.1740    -0.1740     0.2170 ca         1 4NR       0.155000
      4 FAC         -5.4800    -0.4900     0.3590 f          1 4NR      -0.184000
      5 CAE         -3.1960    -0.9270     0.8810 ca         1 4NR      -0.150000
      6 CAG         -1.8360    -0.5970     0.7350 ca         1 4NR      -0.098000
      7 CAO         -1.4390     0.4840    -0.0830 ca         1 4NR      -0.005800
      8 CAP         -0.0210     0.8460    -0.2370 cc         1 4NR      -0.104400
      9 C5           1.1830     0.1160    -0.1030 cc         1 4NR      -0.291800
     10 C6           1.5110    -1.2100    -0.0070 cd         1 4NR       0.764900
     11 NAB          0.7270    -2.2670    -0.0840 nv         1 4NR      -1.058900
     12 N1           2.8210    -1.5850     0.0640 nd         1 4NR      -0.889000
     13 C2           3.7030    -0.6030     0.0500 cc         1 4NR       0.848400
     14 NAA          4.9500    -1.0100     0.1430 nv         1 4NR      -1.080900
     15 N3           3.4620     0.7560    -0.0880 na         1 4NR      -0.339500
     16 C4           2.1380     1.0770    -0.1650 cc         1 4NR      -0.040000
     17 NAK          1.7520     2.3190    -0.3110 nd         1 4NR      -0.338600
     18 CAH          0.3480     2.1890    -0.3470 cd         1 4NR      -0.016400
     19 HAF         -2.1710     2.0840    -1.3640 ha         1 4NR       0.120000
     20 HAD         -4.5640     1.4990    -1.0920 ha         1 4NR       0.128000
     21 HAE         -3.4920    -1.7560     1.5190 ha         1 4NR       0.128000
     22 HAG         -1.1010    -1.1550     1.3050 ha         1 4NR       0.120000
     23 HAH         -0.2980     3.0590    -0.4140 h4         1 4NR       0.207000
     24 HAB1        -0.1280    -2.1200    -0.6030 hn         1 4NR       0.507500
     25 HAB2         1.2340    -3.1120    -0.3040 hn         1 4NR       0.507500
     26 HAA1         4.9890    -1.9830     0.4140 hn         1 4NR       0.502000
     27 HAA2         5.5720    -0.4020     0.6590 hn         1 4NR       0.502000
     28 H3           4.2090     1.4280    -0.1390 hn         1 4NR       0.357000
@<TRIPOS>BOND
     1     1     2 ar  
     2     1     7 ar  
     3     1    19 1   
     4     2     3 ar  
     5     2    20 1   
     6     3     4 1   
     7     3     5 ar  
     8     5     6 ar  
     9     5    21 1   
    10     6     7 ar  
    11     6    22 1   
    12     7     8 1   
    13     8     9 1   
    14     8    18 2   
    15     9    10 2   
    16     9    16 1   
    17    10    11 1   
    18    10    12 1   
    19    11    24 1   
    20    11    25 1   
    21    12    13 2   
    22    13    14 1   
    23    13    15 1   
    24    14    26 1   
    25    14    27 1   
    26    15    16 1   
    27    15    28 1   
    28    16    17 2   
    29    17    18 1   
    30    18    23 1   
@<TRIPOS>SUBSTRUCTURE
     1 4NR         1 TEMP              0 ****  ****    0 ROOT
