@<TRIPOS>MOLECULE
4NR
   28    30     1     0     0
SMALL
bcc


@<TRIPOS>ATOM
      1 CAF         -2.4120     1.0980    -0.8580 ca         1 4NR      -0.116000
      2 CAD         -3.7490     0.7350    -0.8090 ca         1 4NR      -0.168000
      3 CAL         -4.1410    -0.2360     0.0920 ca         1 4NR       0.119900
      4 FAC         -5.4330    -0.6060     0.1350 f          1 4NR      -0.148900
      5 CAE         -3.2420    -0.8380     0.9500 ca         1 4NR      -0.168000
      6 CAG         -1.9110    -0.4490     0.8980 ca         1 4NR      -0.116000
      7 CAO         -1.4640     0.5170    -0.0090 ca         1 4NR      -0.005800
      8 CAP         -0.0650     0.9420    -0.0500 cc         1 4NR      -0.104400
      9 C5           1.1320     0.1530    -0.0170 cc         1 4NR      -0.357100
     10 C6           1.5090    -1.2000    -0.0860 cd         1 4NR       0.830200
     11 NAB          0.6320    -2.2000    -0.1890 nv         1 4NR      -0.948500
     12 N1           2.8050    -1.5550    -0.0520 nd         1 4NR      -0.889000
     13 C2           3.7440    -0.6310    -0.0100 cc         1 4NR       0.848400
     14 NAA          5.0300    -1.0170    -0.0140 nv         1 4NR      -0.970500
     15 N3           3.4760     0.6870    -0.0110 na         1 4NR      -0.339900
     16 C4           2.1680     1.1050    -0.0230 cc         1 4NR       0.010700
     17 NAK          1.7560     2.3540    -0.0570 nd         1 4NR      -0.338600
     18 CAH          0.3910     2.2460    -0.0770 cd         1 4NR       0.033600
     19 HAF         -2.0960     1.8390    -1.5810 ha         1 4NR       0.138000
     20 HAD         -4.4700     1.1910    -1.4760 ha         1 4NR       0.146000
     21 HAE         -3.5730    -1.5870     1.6570 ha         1 4NR       0.146000
     22 HAG         -1.2150    -0.8930     1.6010 ha         1 4NR       0.138000
     23 HAH         -0.2260     3.1360    -0.0790 h4         1 4NR       0.157000
     24 HAB1        -0.3500    -2.0280    -0.3150 hn         1 4NR       0.452300
     25 HAB2         0.9610    -3.1440    -0.2920 hn         1 4NR       0.452300
     26 HAA1         5.2210    -1.9910     0.1450 hn         1 4NR       0.446800
     27 HAA2         5.7590    -0.3720     0.2410 hn         1 4NR       0.446800
     28 H3           4.2200     1.3700    -0.0150 hn         1 4NR       0.306700
@<TRIPOS>BOND
     1     1     2 ar  
     2     1     7 ar  
     3     1    19 1   
     4     2     3 ar  
     5     2    20 1   
     6     3     4 1   
     7     3     5 ar  
     8     5     6 ar  
     9     5    21 1   
    10     6     7 ar  
    11     6    22 1   
    12     7     8 1   
    13     8     9 1   
    14     8    18 2   
    15     9    10 2   
    16     9    16 1   
    17    10    11 1   
    18    10    12 1   
    19    11    24 1   
    20    11    25 1   
    21    12    13 2   
    22    13    14 1   
    23    13    15 1   
    24    14    26 1   
    25    14    27 1   
    26    15    16 1   
    27    15    28 1   
    28    16    17 2   
    29    17    18 1   
    30    18    23 1   
@<TRIPOS>SUBSTRUCTURE
     1 4NR         1 TEMP              0 ****  ****    0 ROOT
