@<TRIPOS>MOLECULE
4NS
   18    18     1     0     0
SMALL
bcc


@<TRIPOS>ATOM
      1 O6           4.2810    -1.1220    -0.1830 o          1 4NS      -0.242000
      2 N            3.7460    -0.0380    -0.1430 no         1 4NS       0.324200
      3 O5           4.3290     1.0060    -0.3210 o          1 4NS      -0.242000
      4 C4           2.3220     0.0120     0.1340 ca         1 4NS      -0.231200
      5 C5           1.6320    -1.1730     0.3540 ca         1 4NS      -0.053500
      6 C6           0.2770    -1.1220     0.6190 ca         1 4NS      -0.175000
      7 C3           1.6830     1.2440     0.1790 ca         1 4NS      -0.053500
      8 C2           0.3270     1.2860     0.4410 ca         1 4NS      -0.175000
      9 C1          -0.3750     0.1060     0.6700 ca         1 4NS       0.251100
     10 O1          -1.6920     0.1650     0.9850 os         1 4NS      -0.473800
     11 S           -2.8040     0.0090    -0.2830 s6         1 4NS       1.485300
     12 O2          -4.0400     0.2300     0.4510 o          1 4NS      -0.682533
     13 O3          -2.4250     1.0580    -1.2230 o          1 4NS      -0.682533
     14 O4          -2.6000    -1.3490    -0.7790 o          1 4NS      -0.682533
     15 H5           2.1350    -2.1280     0.3210 ha         1 4NS       0.152500
     16 H6          -0.2720    -2.0350     0.8050 ha         1 4NS       0.162500
     17 H3           2.2240     2.1630     0.0090 ha         1 4NS       0.152500
     18 H2          -0.1870     2.2370     0.4880 ha         1 4NS       0.162500
@<TRIPOS>BOND
     1     1     2 1   
     2     2     3 1   
     3     2     4 1   
     4     4     5 ar  
     5     4     7 ar  
     6     5     6 ar  
     7     5    15 1   
     8     6     9 ar  
     9     6    16 1   
    10     7     8 ar  
    11     7    17 1   
    12     8     9 ar  
    13     8    18 1   
    14     9    10 1   
    15    10    11 1   
    16    11    12 1   
    17    11    13 1   
    18    11    14 1   
@<TRIPOS>SUBSTRUCTURE
     1 4NS         1 TEMP              0 ****  ****    0 ROOT
