@<TRIPOS>MOLECULE
4NS
   18    18     1     0     0
SMALL
No Charge or Current Charge


@<TRIPOS>ATOM
      1 O6           4.3850    -1.1530    -0.1800 o          1 4NS      -0.432000
      2 N            3.8270    -0.0480    -0.1670 no         1 4NS       0.704200
      3 O5           4.4180     1.0180    -0.3850 o          1 4NS      -0.432000
      4 C4           2.3590     0.0020     0.1280 ca         1 4NS      -0.231200
      5 C5           1.6390    -1.1890     0.3880 ca         1 4NS      -0.035500
      6 C6           0.2610    -1.1370     0.6640 ca         1 4NS      -0.157000
      7 C3           1.6750     1.2410     0.1570 ca         1 4NS      -0.035500
      8 C2           0.2970     1.2820     0.4350 ca         1 4NS      -0.157000
      9 C1          -0.4120     0.0940     0.6720 ca         1 4NS       0.251100
     10 O1          -1.7430     0.1430     0.9790 os         1 4NS      -0.473800
     11 S           -2.8150     0.0410    -0.2600 s6         1 4NS       1.485300
     12 O2          -4.1260     0.1240     0.4020 o          1 4NS      -0.682533
     13 O3          -2.4970     1.1940    -1.1150 o          1 4NS      -0.682533
     14 O4          -2.5340    -1.2630    -0.8800 o          1 4NS      -0.682533
     15 H5           2.1370    -2.1570     0.3800 ha         1 4NS       0.134500
     16 H6          -0.2870    -2.0520     0.8710 ha         1 4NS       0.144500
     17 H3           2.2010     2.1750    -0.0300 ha         1 4NS       0.134500
     18 H2          -0.2230     2.2350     0.4650 ha         1 4NS       0.144500
@<TRIPOS>BOND
     1     1     2 1   
     2     2     3 1   
     3     2     4 1   
     4     4     5 ar  
     5     4     7 ar  
     6     5     6 ar  
     7     5    15 1   
     8     6     9 ar  
     9     6    16 1   
    10     7     8 ar  
    11     7    17 1   
    12     8     9 ar  
    13     8    18 1   
    14     9    10 1   
    15    10    11 1   
    16    11    12 1   
    17    11    13 1   
    18    11    14 1   
@<TRIPOS>SUBSTRUCTURE
     1 4NS         1 TEMP              0 ****  ****    0 ROOT
