@<TRIPOS>MOLECULE
4NT
   39    40     1     0     0
SMALL
No Charge or Current Charge


@<TRIPOS>ATOM
      1 N1           1.7520     3.1540    -1.1960 n8         1 4NT      -1.011200
      2 CA1          2.5660     1.9890    -0.6550 c3         1 4NT       0.101200
      3 CB1          3.1820     2.3340     0.7440 c3         1 4NT       0.177300
      4 CG1          4.7010     2.6020     0.6880 c3         1 4NT      -0.121100
      5 OG1          2.5430     3.5280     1.1960 oh         1 4NT      -0.640000
      6 C1           1.7980     0.6560    -0.6280 cc         1 4NT       0.473900
      7 N2           0.4600     0.6070    -0.5300 nd         1 4NT      -0.683300
      8 N3           2.4020    -0.5900    -0.7190 n          1 4NT      -0.302300
      9 C2           1.4450    -1.5740    -0.6620 c          1 4NT       0.541200
     10 O2           1.6010    -2.7890    -0.6980 o          1 4NT      -0.494000
     11 CA2          0.2160    -0.7640    -0.5480 cd         1 4NT       0.044400
     12 CA3          3.8580    -0.8950    -0.7920 c3         1 4NT      -0.054000
     13 C3           4.4700    -1.4180     0.5290 c          1 4NT       0.713000
     14 O3           4.1220    -0.8920     1.5760 o          1 4NT      -0.709500
     15 CB2         -1.0580    -1.2900    -0.4510 ce         1 4NT      -0.112200
     16 CG2         -2.3920    -0.6210    -0.3680 ca         1 4NT      -0.060800
     17 CD1         -3.4380    -1.2650     0.3230 ca         1 4NT      -0.059000
     18 CD2         -2.6430     0.6220    -0.9880 ca         1 4NT      -0.038000
     19 CE1         -4.7090    -0.6700     0.4110 ca         1 4NT       0.012000
     20 CE2         -3.9150     1.2180    -0.9010 ca         1 4NT      -0.155000
     21 CZ          -4.9480     0.5760    -0.2010 ca         1 4NT       0.145100
     22 OH          -6.1770     1.1650    -0.1250 oh         1 4NT      -0.534100
     23 Cl1         -5.9940    -1.4990     1.2900 cl         1 4NT      -0.230000
     24 H1           1.7250     3.0900    -2.2230 hn         1 4NT       0.407000
     25 H2           0.7670     2.9680    -0.9540 hn         1 4NT       0.407000
     26 H4           3.4040     1.8580    -1.3520 h1         1 4NT       0.067700
     27 H5           2.9990     1.5020     1.4430 h1         1 4NT       0.129700
     28 H6           4.9310     3.4230    -0.0020 hc         1 4NT       0.037033
     29 H7           5.0820     2.8690     1.6810 hc         1 4NT       0.037033
     30 H8           5.2410     1.7100     0.3500 hc         1 4NT       0.037033
     31 H9           2.0990     3.8180     0.3550 ho         1 4NT       0.433000
     32 H10          4.0140    -1.6560    -1.5670 h1         1 4NT       0.039700
     33 H11          4.4200    -0.0040    -1.0940 h1         1 4NT       0.039700
     34 H13         -1.0960    -2.3790    -0.4160 ha         1 4NT       0.188000
     35 H15         -3.2650    -2.2270     0.7990 ha         1 4NT       0.127000
     36 H16         -1.8610     1.1260    -1.5500 ha         1 4NT       0.155000
     37 H17         -4.0990     2.1750    -1.3810 ha         1 4NT       0.126000
     38 O1           5.2580    -2.3500     0.4690 o          1 4NT      -0.709500
     39 H3          -6.7590     0.5700     0.3970 ho         1 4NT       0.472000
@<TRIPOS>BOND
     1     1     2 1   
     2     1    24 1   
     3     1    25 1   
     4     2     3 1   
     5     2     6 1   
     6     2    26 1   
     7     3     4 1   
     8     3     5 1   
     9     3    27 1   
    10     4    28 1   
    11     4    29 1   
    12     4    30 1   
    13     5    31 1   
    14     6     7 2   
    15     6     8 1   
    16     7    11 1   
    17     8     9 1   
    18     8    12 1   
    19     9    10 2   
    20     9    11 1   
    21    11    15 2   
    22    12    13 1   
    23    12    32 1   
    24    12    33 1   
    25    13    14 1   
    26    13    38 1   
    27    15    16 1   
    28    15    34 1   
    29    16    17 ar  
    30    16    18 ar  
    31    17    19 ar  
    32    17    35 1   
    33    18    20 ar  
    34    18    36 1   
    35    19    21 ar  
    36    19    23 1   
    37    20    21 ar  
    38    20    37 1   
    39    21    22 1   
    40    22    39 1   
@<TRIPOS>SUBSTRUCTURE
     1 4NT         1 TEMP              0 ****  ****    0 ROOT
