@<TRIPOS>MOLECULE
4NT
   39    40     1     0     0
SMALL
abcg2


@<TRIPOS>ATOM
      1 N1           1.8910     2.8970    -1.3770 n8         1 4NT      -1.011200
      2 CA1          2.6670     1.7820    -0.8700 c3         1 4NT       0.101200
      3 CB1          3.3260     2.1840     0.4750 c3         1 4NT       0.177300
      4 CG1          4.4890     3.1330     0.2370 c3         1 4NT      -0.121100
      5 OG1          2.3580     2.7320     1.3380 oh         1 4NT      -0.640000
      6 C1           1.8460     0.5410    -0.6870 cc         1 4NT       0.473900
      7 N2           0.5600     0.5550    -0.5770 nd         1 4NT      -0.683300
      8 N3           2.4010    -0.7160    -0.6060 n          1 4NT      -0.302300
      9 C2           1.3840    -1.6160    -0.3900 c          1 4NT       0.541200
     10 O2           1.5070    -2.8170    -0.2640 o          1 4NT      -0.494000
     11 CA2          0.1720    -0.7630    -0.3870 cd         1 4NT       0.044400
     12 CA3          3.7900    -1.0990    -0.5990 c3         1 4NT      -0.054000
     13 C3           4.3390    -1.4230     0.8100 c          1 4NT       0.713000
     14 O3           3.6160    -1.1460     1.7810 o          1 4NT      -0.709500
     15 CB2         -1.0700    -1.2590    -0.2350 ce         1 4NT      -0.112200
     16 CG2         -2.3400    -0.5630    -0.2230 ca         1 4NT      -0.060800
     17 CD1         -3.5000    -1.3290    -0.0730 ca         1 4NT      -0.059000
     18 CD2         -2.4840     0.8270    -0.3530 ca         1 4NT      -0.038000
     19 CE1         -4.7440    -0.7330    -0.0550 ca         1 4NT       0.012000
     20 CE2         -3.7300     1.4160    -0.3320 ca         1 4NT      -0.155000
     21 CZ          -4.8880     0.6500    -0.1820 ca         1 4NT       0.145100
     22 OH          -6.0660     1.2770    -0.1680 oh         1 4NT      -0.534100
     23 CL1         -6.1680    -1.7070     0.1290 cl         1 4NT      -0.230000
     24 H1           1.8780     2.8750    -2.3870 hn         1 4NT       0.407000
     25 H2           0.9250     2.7990    -1.0850 hn         1 4NT       0.407000
     26 H4           3.4700     1.5660    -1.5820 h1         1 4NT       0.067700
     27 H5           3.6930     1.2870     0.9790 h1         1 4NT       0.129700
     28 H6           4.1680     4.0180    -0.3160 hc         1 4NT       0.037033
     29 H7           4.9200     3.4580     1.1850 hc         1 4NT       0.037033
     30 H8           5.2760     2.6460    -0.3380 hc         1 4NT       0.037033
     31 H9           2.0230     3.5310     0.9150 ho         1 4NT       0.433000
     32 H10          3.9170    -1.9640    -1.2530 h1         1 4NT       0.039700
     33 H11          4.3820    -0.2970    -1.0420 h1         1 4NT       0.039700
     34 H13         -1.1290    -2.3350    -0.1080 ha         1 4NT       0.188000
     35 H15         -3.4250    -2.4040     0.0280 ha         1 4NT       0.127000
     36 H16         -1.6090     1.4480    -0.4710 ha         1 4NT       0.155000
     37 H17         -3.8270     2.4900    -0.4310 ha         1 4NT       0.126000
     38 O1           5.4790    -1.9190     0.8140 o          1 4NT      -0.709500
     39 H3          -6.7970     0.6560    -0.0540 ho         1 4NT       0.472000
@<TRIPOS>BOND
     1     1     2 1   
     2     1    24 1   
     3     1    25 1   
     4     2     3 1   
     5     2     6 1   
     6     2    26 1   
     7     3     4 1   
     8     3     5 1   
     9     3    27 1   
    10     4    28 1   
    11     4    29 1   
    12     4    30 1   
    13     5    31 1   
    14     6     7 2   
    15     6     8 1   
    16     7    11 1   
    17     8     9 1   
    18     8    12 1   
    19     9    10 2   
    20     9    11 1   
    21    11    15 2   
    22    12    13 1   
    23    12    32 1   
    24    12    33 1   
    25    13    14 1   
    26    13    38 1   
    27    15    16 1   
    28    15    34 1   
    29    16    17 ar  
    30    16    18 ar  
    31    17    19 ar  
    32    17    35 1   
    33    18    20 ar  
    34    18    36 1   
    35    19    21 ar  
    36    19    23 1   
    37    20    21 ar  
    38    20    37 1   
    39    21    22 1   
    40    22    39 1   
@<TRIPOS>SUBSTRUCTURE
     1 4NT         1 TEMP              0 ****  ****    0 ROOT
