@<TRIPOS>MOLECULE
4NU
   39    40     1     0     0
SMALL
abcg2


@<TRIPOS>ATOM
      1 N1          -2.6940     3.0410     0.8280 n8         1 4NU      -1.010200
      2 CA1         -3.3520     1.7860     0.5300 c3         1 4NU       0.110200
      3 CB1         -4.0990     1.7290    -0.8320 c3         1 4NU       0.122300
      4 CG1         -5.2660     2.7040    -0.8560 c3         1 4NU      -0.127100
      5 OG1         -3.2110     1.9370    -1.9050 oh         1 4NU      -0.623000
      6 C1          -2.3370     0.6890     0.5730 cc         1 4NU       0.523900
      7 N2          -1.0820     0.8780     0.3490 nd         1 4NU      -0.671300
      8 N3          -2.6770    -0.6230     0.8320 n          1 4NU      -0.307300
      9 C2          -1.5390    -1.3820     0.7360 c          1 4NU       0.545200
     10 O2          -1.4530    -2.5790     0.8960 o          1 4NU      -0.487000
     11 CA2         -0.4860    -0.3720     0.4350 cd         1 4NU       0.048400
     12 CA3         -3.9770    -1.2040     1.0590 c3         1 4NU      -0.054000
     13 C3          -4.5540    -1.9360    -0.1760 c          1 4NU       0.712000
     14 O3          -3.9570    -1.7890    -1.2540 o          1 4NU      -0.709500
     15 CB2          0.8120    -0.6460     0.3010 c2         1 4NU      -0.180200
     16 CG2          1.8570     0.4080     0.0380 c6         1 4NU       0.012900
     17 CD1          2.5690     0.0870    -1.2280 c2         1 4NU      -0.120700
     18 CD2          2.7390     0.5080     1.2340 c2         1 4NU      -0.120700
     19 CE1          3.8760    -0.1660    -1.2640 ce         1 4NU      -0.035200
     20 CE2          4.0440     0.2500     1.1790 ce         1 4NU      -0.035200
     21 CZ           4.7380    -0.1220    -0.0680 c          1 4NU       0.587500
     22 O4           5.9210    -0.3660    -0.1080 o          1 4NU      -0.493100
     23 CL1          4.6840    -0.5560    -2.7350 cl         1 4NU      -0.175500
     24 CL2          5.0470     0.3470     2.5750 cl         1 4NU      -0.175500
     25 H1          -1.9550     3.2300     0.1640 hn         1 4NU       0.405500
     26 H2          -3.3530     3.8060     0.7870 hn         1 4NU       0.405500
     27 H4          -4.0950     1.6050     1.3140 h1         1 4NU       0.080700
     28 H5          -4.4860     0.7180    -0.9710 h1         1 4NU       0.140700
     29 H6          -4.9310     3.7410    -0.7740 hc         1 4NU       0.036367
     30 H7          -5.8210     2.6120    -1.7890 hc         1 4NU       0.036367
     31 H8          -5.9560     2.5100    -0.0350 hc         1 4NU       0.036367
     32 H9          -2.9340     2.8600    -1.9010 ho         1 4NU       0.414000
     33 H10         -3.9050    -1.8970     1.8980 h1         1 4NU       0.040700
     34 H11         -4.6660    -0.4190     1.3720 h1         1 4NU       0.040700
     35 OXT         -5.5870    -2.5900     0.0540 o          1 4NU      -0.709500
     36 H15          1.1550    -1.6710     0.4000 ha         1 4NU       0.199000
     37 H16          1.3430     1.3690    -0.0890 hc         1 4NU       0.119700
     38 H17          1.9700     0.0480    -2.1290 ha         1 4NU       0.208500
     39 H18          2.2660     0.7850     2.1670 ha         1 4NU       0.208500
@<TRIPOS>BOND
     1     1     2 1   
     2     1    25 1   
     3     1    26 1   
     4     2     3 1   
     5     2     6 1   
     6     2    27 1   
     7     3     4 1   
     8     3     5 1   
     9     3    28 1   
    10     4    29 1   
    11     4    30 1   
    12     4    31 1   
    13     5    32 1   
    14     6     7 2   
    15     6     8 1   
    16     7    11 1   
    17     8     9 1   
    18     8    12 1   
    19     9    10 2   
    20     9    11 1   
    21    11    15 2   
    22    12    13 1   
    23    12    33 1   
    24    12    34 1   
    25    13    14 1   
    26    13    35 1   
    27    15    16 1   
    28    15    36 1   
    29    16    17 1   
    30    16    18 1   
    31    16    37 1   
    32    17    19 2   
    33    17    38 1   
    34    18    20 2   
    35    18    39 1   
    36    19    21 1   
    37    19    23 1   
    38    20    21 1   
    39    20    24 1   
    40    21    22 2   
@<TRIPOS>SUBSTRUCTURE
     1 4NU         1 TEMP              0 ****  ****    0 ROOT
