@<TRIPOS>MOLECULE
4NU
   39    40     1     0     0
SMALL
No Charge or Current Charge


@<TRIPOS>ATOM
      1 N1          -2.6100     3.1110     1.0440 n8         1 4NU      -1.010200
      2 CA1         -3.2390     1.8090     0.5970 c3         1 4NU       0.110200
      3 CB1         -4.1180     1.9840    -0.6870 c3         1 4NU       0.122300
      4 CG1         -5.3730     2.8530    -0.4500 c3         1 4NU      -0.127100
      5 OG1         -3.3550     2.5740    -1.7540 oh         1 4NU      -0.623000
      6 C1          -2.2550     0.6290     0.4450 cc         1 4NU       0.523900
      7 N2          -0.9600     0.7990     0.1200 nd         1 4NU      -0.671300
      8 N3          -2.6180    -0.7020     0.6500 n          1 4NU      -0.307300
      9 C2          -1.5310    -1.5190     0.4480 c          1 4NU       0.545200
     10 O2          -1.4640    -2.7400     0.5320 o          1 4NU      -0.487000
     11 CA2         -0.5070    -0.5130     0.1160 cd         1 4NU       0.048400
     12 CA3         -3.9690    -1.2420     0.9800 c3         1 4NU      -0.054000
     13 C3          -4.6070    -2.0970    -0.1390 c          1 4NU       0.712000
     14 O3          -4.6400    -1.6320    -1.2690 o          1 4NU      -0.709500
     15 CB2          0.7830    -0.8660    -0.1640 c2         1 4NU      -0.180200
     16 CG2          1.8880     0.1290    -0.4970 c6         1 4NU       0.012900
     17 CD1          2.9880    -0.5430    -1.3100 c2         1 4NU      -0.120700
     18 CD2          2.4150     0.7770     0.7760 c2         1 4NU      -0.120700
     19 CE1          4.2820    -0.5910    -0.9200 ce         1 4NU      -0.035200
     20 CE2          3.7090     0.7270     1.1620 ce         1 4NU      -0.035200
     21 CZ           4.7710     0.0310     0.3580 c          1 4NU       0.587500
     22 O4           5.9460    -0.0210     0.7140 o          1 4NU      -0.493100
     23 Cl1          5.4700    -1.4130    -1.9500 cl         1 4NU      -0.175500
     24 Cl2          4.1970     1.5130     2.6760 cl         1 4NU      -0.175500
     25 H1          -1.8380     3.3340     0.4020 hn         1 4NU       0.405500
     26 H2          -3.2780     3.8810     0.9240 hn         1 4NU       0.405500
     27 H4          -3.9280     1.5280     1.4050 h1         1 4NU       0.080700
     28 H5          -4.4680     0.9850    -0.9870 h1         1 4NU       0.140700
     29 H6          -5.1080     3.8790    -0.1680 hc         1 4NU       0.036367
     30 H7          -5.9860     2.8980    -1.3590 hc         1 4NU       0.036367
     31 H8          -5.9910     2.4260     0.3490 hc         1 4NU       0.036367
     32 H9          -3.2540     3.5270    -1.5470 ho         1 4NU       0.414000
     33 H10         -3.8830    -1.8620     1.8820 h1         1 4NU       0.040700
     34 H11         -4.6660    -0.4280     1.2070 h1         1 4NU       0.040700
     35 OXT         -5.0450    -3.2000     0.1530 o          1 4NU      -0.709500
     36 H15          1.0780    -1.9170    -0.1420 ha         1 4NU       0.199000
     37 H16          1.4610     0.9250    -1.1260 hc         1 4NU       0.119700
     38 H17          2.6790    -1.0020    -2.2510 ha         1 4NU       0.208500
     39 H18          1.6760     1.2970     1.3870 ha         1 4NU       0.208500
@<TRIPOS>BOND
     1     1     2 1   
     2     1    25 1   
     3     1    26 1   
     4     2     3 1   
     5     2     6 1   
     6     2    27 1   
     7     3     4 1   
     8     3     5 1   
     9     3    28 1   
    10     4    29 1   
    11     4    30 1   
    12     4    31 1   
    13     5    32 1   
    14     6     7 2   
    15     6     8 1   
    16     7    11 1   
    17     8     9 1   
    18     8    12 1   
    19     9    10 2   
    20     9    11 1   
    21    11    15 2   
    22    12    13 1   
    23    12    33 1   
    24    12    34 1   
    25    13    14 1   
    26    13    35 1   
    27    15    16 1   
    28    15    36 1   
    29    16    17 1   
    30    16    18 1   
    31    16    37 1   
    32    17    19 2   
    33    17    38 1   
    34    18    20 2   
    35    18    39 1   
    36    19    21 1   
    37    19    23 1   
    38    20    21 1   
    39    20    24 1   
    40    21    22 2   
@<TRIPOS>SUBSTRUCTURE
     1 4NU         1 TEMP              0 ****  ****    0 ROOT
