@<TRIPOS>MOLECULE
4NX
   51    55     1     0     0
SMALL
No Charge or Current Charge


@<TRIPOS>ATOM
      1 Cl1         -6.4490    -0.4960    -0.0120 cl         1 4NX      -0.207000
      2 C40         -4.8630    -1.1120    -0.4540 ca         1 4NX       0.122000
      3 C39         -4.2540    -0.6880    -1.6460 ca         1 4NX      -0.103500
      4 C38         -2.9760    -1.1650    -1.9900 ca         1 4NX      -0.090000
      5 C41         -4.2050    -2.0220     0.3880 ca         1 4NX      -0.103500
      6 C42         -2.9300    -2.5020     0.0430 ca         1 4NX      -0.090000
      7 C37         -2.3040    -2.0690    -1.1440 ca         1 4NX      -0.079300
      8 C28         -0.8980    -2.5400    -1.4960 c3         1 4NX       0.031100
      9 C15          0.1570    -1.4510    -1.3460 ce         1 4NX      -0.188400
     10 C16          1.1610    -1.1940    -2.3970 c          1 4NX       0.660300
     11 O20          1.2860    -1.7890    -3.4570 o          1 4NX      -0.476000
     12 O18          1.9450    -0.1490    -1.9980 os         1 4NX      -0.456100
     13 C13          1.5180     0.2810    -0.6920 c5         1 4NX       0.432200
     14 O21          1.2150     1.6570    -0.7740 oh         1 4NX      -0.625000
     15 C5           2.6830     0.0870     0.3140 c3         1 4NX      -0.057100
     16 C6           3.9560     0.8710    -0.0070 ca         1 4NX      -0.100300
     17 C11          4.8910     0.3600    -0.9290 ca         1 4NX      -0.090500
     18 C10          6.0620     1.0800    -1.2240 ca         1 4NX      -0.103000
     19 C7           4.2070     2.1070     0.6210 ca         1 4NX      -0.090500
     20 C8           5.3790     2.8260     0.3250 ca         1 4NX      -0.103000
     21 C9           6.3050     2.3120    -0.5970 ca         1 4NX       0.127000
     22 Cl2          7.7700     3.2130    -0.9660 cl         1 4NX      -0.198000
     23 C14          0.3060    -0.6020    -0.3100 cf         1 4NX      -0.004200
     24 C44         -0.4410    -0.4780     0.9390 cd         1 4NX      -0.104200
     25 C48         -0.2430    -1.2470     2.0790 cc         1 4NX      -0.128100
     26 N49         -1.2770    -0.8640     2.9610 na         1 4NX      -0.209700
     27 C46         -2.0830     0.0880     2.3590 ca         1 4NX      -0.046200
     28 C45         -1.5990     0.3640     1.1130 ca         1 4NX      -0.078800
     29 C56         -3.2400     0.7080     2.8480 ca         1 4NX      -0.118000
     30 C57         -3.8900     1.6380     2.0090 ca         1 4NX       0.141000
     31 Cl3         -5.3520     2.4400     2.5670 cl         1 4NX      -0.203000
     32 C58         -3.3790     1.9300     0.7210 ca         1 4NX      -0.126000
     33 C59         -2.2120     1.2860     0.2560 ca         1 4NX      -0.052000
     34 H1          -4.7650     0.0170    -2.2960 ha         1 4NX       0.129000
     35 H2          -2.5010    -0.8200    -2.9060 ha         1 4NX       0.119000
     36 H3          -4.6770    -2.3440     1.3120 ha         1 4NX       0.129000
     37 H4          -2.4190    -3.1920     0.7120 ha         1 4NX       0.119000
     38 H5          -0.6220    -3.3960    -0.8690 hc         1 4NX       0.069700
     39 H6          -0.9060    -2.9300    -2.5220 hc         1 4NX       0.069700
     40 H7           2.0240     2.0600    -1.1500 ho         1 4NX       0.473000
     41 H8           2.3320     0.3570     1.3180 hc         1 4NX       0.067200
     42 H9           2.9220    -0.9820     0.3760 hc         1 4NX       0.067200
     43 H10          4.7100    -0.5950    -1.4200 ha         1 4NX       0.123500
     44 H11          6.7810     0.6830    -1.9370 ha         1 4NX       0.133000
     45 H12          3.4960     2.5130     1.3380 ha         1 4NX       0.123500
     46 H13          5.5700     3.7800     0.8100 ha         1 4NX       0.133000
     47 H14          0.4920    -2.0130     2.3100 h4         1 4NX       0.215000
     48 H15         -1.4240    -1.2430     3.8920 hn         1 4NX       0.357000
     49 H16         -3.6300     0.4790     3.8360 ha         1 4NX       0.132000
     50 H17         -3.8920     2.6460     0.0860 ha         1 4NX       0.132000
     51 H18         -1.8110     1.4880    -0.7340 ha         1 4NX       0.127000
@<TRIPOS>BOND
     1     1     2 1   
     2     2     3 ar  
     3     2     5 ar  
     4     3     4 ar  
     5     3    34 1   
     6     4     7 ar  
     7     4    35 1   
     8     5     6 ar  
     9     5    36 1   
    10     6     7 ar  
    11     6    37 1   
    12     7     8 1   
    13     8     9 1   
    14     8    38 1   
    15     8    39 1   
    16     9    10 1   
    17     9    23 2   
    18    10    11 2   
    19    10    12 1   
    20    12    13 1   
    21    13    14 1   
    22    13    15 1   
    23    13    23 1   
    24    14    40 1   
    25    15    16 1   
    26    15    41 1   
    27    15    42 1   
    28    16    17 ar  
    29    16    19 ar  
    30    17    18 ar  
    31    17    43 1   
    32    18    21 ar  
    33    18    44 1   
    34    19    20 ar  
    35    19    45 1   
    36    20    21 ar  
    37    20    46 1   
    38    21    22 1   
    39    23    24 1   
    40    24    25 2   
    41    24    28 1   
    42    25    26 1   
    43    25    47 1   
    44    26    27 1   
    45    26    48 1   
    46    27    28 ar  
    47    27    29 ar  
    48    28    33 ar  
    49    29    30 ar  
    50    29    49 1   
    51    30    31 1   
    52    30    32 ar  
    53    32    33 ar  
    54    32    50 1   
    55    33    51 1   
@<TRIPOS>SUBSTRUCTURE
     1 4NX         1 TEMP              0 ****  ****    0 ROOT
