@<TRIPOS>MOLECULE
4NX
   51    55     1     0     0
SMALL
abcg2


@<TRIPOS>ATOM
      1 CL1         -1.8680    -6.8200     0.5810 cl         1 4NX      -0.207000
      2 C40         -1.8790    -5.1840     0.0020 ca         1 4NX       0.122000
      3 C39         -1.7500    -4.1410     0.9070 ca         1 4NX      -0.103500
      4 C38         -1.7600    -2.8380     0.4350 ca         1 4NX      -0.090000
      5 C41         -2.0190    -4.9410    -1.3540 ca         1 4NX      -0.103500
      6 C42         -2.0270    -3.6280    -1.8060 ca         1 4NX      -0.090000
      7 C37         -1.9020    -2.5630    -0.9230 ca         1 4NX      -0.079300
      8 C28         -1.9110    -1.1340    -1.4080 c3         1 4NX       0.031100
      9 C15         -0.5880    -0.4920    -1.1620 ce         1 4NX      -0.188400
     10 C16          0.6220    -0.9570    -1.8550 c          1 4NX       0.660300
     11 O20          0.7260    -1.7980    -2.7050 o          1 4NX      -0.476000
     12 O18          1.6790    -0.2730    -1.3920 os         1 4NX      -0.456100
     13 C13          1.2750     0.6400    -0.3610 c5         1 4NX       0.432200
     14 O21          1.5620     1.9280    -0.7350 oh         1 4NX      -0.625000
     15 C5           1.9730     0.2020     0.9350 c3         1 4NX      -0.057100
     16 C6           3.4660     0.3520     0.8580 ca         1 4NX      -0.100300
     17 C11          4.2650    -0.6560     0.3210 ca         1 4NX      -0.090500
     18 C10          5.6380    -0.5050     0.2250 ca         1 4NX      -0.103000
     19 C7           4.0800     1.5220     1.2970 ca         1 4NX      -0.090500
     20 C8           5.4550     1.6930     1.2020 ca         1 4NX      -0.103000
     21 C9           6.2220     0.6740     0.6630 ca         1 4NX       0.127000
     22 CL2          7.9420     0.8670     0.5430 cl         1 4NX      -0.198000
     23 C14         -0.2310     0.4730    -0.3070 cf         1 4NX      -0.004200
     24 C44         -1.0930     1.3280     0.4850 cd         1 4NX      -0.104200
     25 C48         -0.9850     1.6570     1.8150 cc         1 4NX      -0.128100
     26 N49         -1.9980     2.4850     2.1700 na         1 4NX      -0.209700
     27 C46         -2.7880     2.7390     1.0880 ca         1 4NX      -0.046200
     28 C45         -2.2530     2.0250    -0.0020 ca         1 4NX      -0.078800
     29 C56         -3.9150     3.5500     0.9790 ca         1 4NX      -0.118000
     30 C57         -4.4910     3.6290    -0.2700 ca         1 4NX       0.141000
     31 CL3         -5.9030     4.6180    -0.4830 cl         1 4NX      -0.203000
     32 C58         -3.9790     2.9480    -1.3840 ca         1 4NX      -0.126000
     33 C59         -2.8610     2.1520    -1.2540 ca         1 4NX      -0.052000
     34 H1          -1.6440    -4.3380     1.9650 ha         1 4NX       0.129000
     35 H2          -1.6610    -2.0240     1.1450 ha         1 4NX       0.119000
     36 H3          -2.1180    -5.7590    -2.0530 ha         1 4NX       0.129000
     37 H4          -2.1330    -3.4390    -2.8670 ha         1 4NX       0.119000
     38 H5          -2.1500    -1.1050    -2.4730 hc         1 4NX       0.069700
     39 H6          -2.6930    -0.5790    -0.8900 hc         1 4NX       0.069700
     40 H7           2.5130     2.0910    -0.6770 ho         1 4NX       0.473000
     41 H8           1.5930     0.8100     1.7560 hc         1 4NX       0.067200
     42 H9           1.6980    -0.8330     1.1500 hc         1 4NX       0.067200
     43 H10          3.8150    -1.5800    -0.0180 ha         1 4NX       0.123500
     44 H11          6.2450    -1.3000    -0.1880 ha         1 4NX       0.133000
     45 H12          3.4870     2.3130     1.7400 ha         1 4NX       0.123500
     46 H13          5.9160     2.6070     1.5520 ha         1 4NX       0.133000
     47 H14         -0.2740     1.3340     2.5570 h4         1 4NX       0.215000
     48 H15         -2.1360     2.8500     3.0990 hn         1 4NX       0.357000
     49 H16         -4.3090     4.0940     1.8260 ha         1 4NX       0.132000
     50 H17         -4.4610     3.0530    -2.3460 ha         1 4NX       0.132000
     51 H18         -2.4660     1.6420    -2.1230 ha         1 4NX       0.127000
@<TRIPOS>BOND
     1     1     2 1   
     2     2     3 ar  
     3     2     5 ar  
     4     3     4 ar  
     5     3    34 1   
     6     4     7 ar  
     7     4    35 1   
     8     5     6 ar  
     9     5    36 1   
    10     6     7 ar  
    11     6    37 1   
    12     7     8 1   
    13     8     9 1   
    14     8    38 1   
    15     8    39 1   
    16     9    10 1   
    17     9    23 2   
    18    10    11 2   
    19    10    12 1   
    20    12    13 1   
    21    13    14 1   
    22    13    15 1   
    23    13    23 1   
    24    14    40 1   
    25    15    16 1   
    26    15    41 1   
    27    15    42 1   
    28    16    17 ar  
    29    16    19 ar  
    30    17    18 ar  
    31    17    43 1   
    32    18    21 ar  
    33    18    44 1   
    34    19    20 ar  
    35    19    45 1   
    36    20    21 ar  
    37    20    46 1   
    38    21    22 1   
    39    23    24 1   
    40    24    25 2   
    41    24    28 1   
    42    25    26 1   
    43    25    47 1   
    44    26    27 1   
    45    26    48 1   
    46    27    28 ar  
    47    27    29 ar  
    48    28    33 ar  
    49    29    30 ar  
    50    29    49 1   
    51    30    31 1   
    52    30    32 ar  
    53    32    33 ar  
    54    32    50 1   
    55    33    51 1   
@<TRIPOS>SUBSTRUCTURE
     1 4NX         1 TEMP              0 ****  ****    0 ROOT
