@<TRIPOS>MOLECULE
4NY
   46    49     1     0     0
SMALL
abcg2


@<TRIPOS>ATOM
      1 C24          8.0070    -0.1880     0.8730 c          1 4NY       0.710600
      2 C23          2.2060     0.9880    -2.0100 cg         1 4NY       0.311700
      3 C22         -3.2960     2.5650    -0.1710 ca         1 4NY      -0.064000
      4 C14         -0.7760    -2.3640     1.0670 ca         1 4NY      -0.048000
      5 C15         -0.8990    -1.3190     0.1500 ca         1 4NY      -0.079800
      6 C16         -3.1060     0.7410    -1.8960 c3         1 4NY       0.126900
      7 C17         -3.9140     1.5800    -0.9380 ca         1 4NY      -0.131300
      8 C18         -5.2840     1.3890    -0.8070 ca         1 4NY      -0.064000
      9 C19         -6.0350     2.1600     0.0710 ca         1 4NY      -0.152500
     10 C20         -5.3880     3.1240     0.8170 ca         1 4NY       0.178000
     11 C21         -4.0260     3.3430     0.7130 ca         1 4NY      -0.152500
     12 O            8.2000    -0.3430     2.0940 o          1 4NY      -0.715500
     13 O1           8.8740    -0.1160    -0.0190 o          1 4NY      -0.715500
     14 C1           6.5560    -0.0770     0.4220 ca         1 4NY      -0.111600
     15 C2           6.2340     0.1390    -0.9140 ca         1 4NY      -0.092500
     16 C3           4.9150     0.2420    -1.3270 ca         1 4NY      -0.119500
     17 C4           3.8690     0.1230    -0.4100 ca         1 4NY      -0.100800
     18 C5           4.1910    -0.0790     0.9340 ca         1 4NY      -0.119500
     19 C            5.5110    -0.1800     1.3370 ca         1 4NY      -0.092500
     20 C6           2.4630     0.2050    -0.8510 ce         1 4NY       0.070100
     21 N1           2.0110     1.6260    -2.9530 n1         1 4NY      -0.512000
     22 C7           1.4480    -0.4330    -0.2190 cf         1 4NY      -0.122000
     23 C8           0.0410    -0.4260    -0.4800 cd         1 4NY      -0.099200
     24 C13         -1.9090    -3.0430     1.4690 ca         1 4NY      -0.135000
     25 C12         -3.1620    -2.6860     0.9560 ca         1 4NY       0.132000
     26 CL          -4.5580    -3.5700     1.4870 cl         1 4NY      -0.224000
     27 C11         -3.3280    -1.6630     0.0460 ca         1 4NY      -0.115000
     28 C10         -2.1730    -0.9920    -0.3440 ca         1 4NY      -0.046200
     29 N           -2.0230     0.0450    -1.2310 na         1 4NY      -0.083700
     30 C9          -0.7150     0.3820    -1.3080 cc         1 4NY      -0.134100
     31 F           -6.1020     3.8750     1.6700 f          1 4NY      -0.180000
     32 H2           0.1880    -2.6530     1.4660 ha         1 4NY       0.128000
     33 H3          -3.7420     0.0130    -2.4020 h1         1 4NY       0.066200
     34 H4          -2.6600     1.3600    -2.6750 h1         1 4NY       0.066200
     35 H5          -5.7830     0.6280    -1.3940 ha         1 4NY       0.121500
     36 H6          -7.1010     2.0060     0.1740 ha         1 4NY       0.133500
     37 H7          -3.5460     4.1100     1.3060 ha         1 4NY       0.133500
     38 H9           7.0260     0.2230    -1.6460 ha         1 4NY       0.131500
     39 H10          4.7040     0.4010    -2.3780 ha         1 4NY       0.091500
     40 H11          3.4070    -0.1310     1.6790 ha         1 4NY       0.091500
     41 H12          5.7340    -0.3300     2.3860 ha         1 4NY       0.131500
     42 H13          1.7440    -1.0610     0.6140 ha         1 4NY       0.189000
     43 H14         -1.8310    -3.8540     2.1800 ha         1 4NY       0.125000
     44 H15         -4.3070    -1.4060    -0.3360 ha         1 4NY       0.125000
     45 H16         -0.4150     1.1980    -1.9450 h4         1 4NY       0.227000
     46 H1          -2.2300     2.7360    -0.2560 ha         1 4NY       0.121500
@<TRIPOS>BOND
     1     1    12 1   
     2     1    13 1   
     3     1    14 1   
     4     2    20 1   
     5     2    21 3   
     6     3     7 ar  
     7     3    11 ar  
     8     3    46 1   
     9     4     5 ar  
    10     4    24 ar  
    11     4    32 1   
    12     5    23 1   
    13     5    28 ar  
    14     6     7 1   
    15     6    29 1   
    16     6    33 1   
    17     6    34 1   
    18     7     8 ar  
    19     8     9 ar  
    20     8    35 1   
    21     9    10 ar  
    22     9    36 1   
    23    10    11 ar  
    24    10    31 1   
    25    11    37 1   
    26    14    15 ar  
    27    14    19 ar  
    28    15    16 ar  
    29    15    38 1   
    30    16    17 ar  
    31    16    39 1   
    32    17    18 ar  
    33    17    20 1   
    34    18    19 ar  
    35    18    40 1   
    36    19    41 1   
    37    20    22 2   
    38    22    23 1   
    39    22    42 1   
    40    23    30 2   
    41    24    25 ar  
    42    24    43 1   
    43    25    26 1   
    44    25    27 ar  
    45    27    28 ar  
    46    27    44 1   
    47    28    29 1   
    48    29    30 1   
    49    30    45 1   
@<TRIPOS>SUBSTRUCTURE
     1 4NY         1 TEMP              0 ****  ****    0 ROOT
