@<TRIPOS>MOLECULE
4NY
   46    49     1     0     0
SMALL
No Charge or Current Charge


@<TRIPOS>ATOM
      1 C24          8.1320    -0.1510     0.9030 c          1 4NY       0.710600
      2 C23          2.3700     0.5910    -2.2600 cg         1 4NY       0.311700
      3 C22         -3.5320     2.3180     0.3280 ca         1 4NY      -0.064000
      4 C14         -0.6840    -2.3500     0.8930 ca         1 4NY      -0.048000
      5 C15         -0.8720    -1.2270     0.0750 ca         1 4NY      -0.079800
      6 C16         -3.1230     0.9460    -1.7970 c3         1 4NY       0.126900
      7 C17         -4.0490     1.6540    -0.8060 ca         1 4NY      -0.131300
      8 C18         -5.4410     1.6500    -1.0300 ca         1 4NY      -0.064000
      9 C19         -6.3060     2.2940    -0.1280 ca         1 4NY      -0.152500
     10 C20         -5.7840     2.9450     0.9980 ca         1 4NY       0.178000
     11 C21         -4.4000     2.9600     1.2290 ca         1 4NY      -0.152500
     12 O            8.3910     0.2160     2.0410 o          1 4NY      -0.715500
     13 O1           8.9860    -0.5700     0.1330 o          1 4NY      -0.715500
     14 C1           6.6880    -0.0840     0.4260 ca         1 4NY      -0.111600
     15 C2           6.3350    -0.4990    -0.8790 ca         1 4NY      -0.092500
     16 C3           5.0020    -0.4360    -1.3200 ca         1 4NY      -0.119500
     17 C4           3.9840     0.0440    -0.4690 ca         1 4NY      -0.100800
     18 C5           4.3310     0.4530     0.8330 ca         1 4NY      -0.119500
     19 C            5.6640     0.3920     1.2760 ca         1 4NY      -0.092500
     20 C6           2.5550     0.1120    -0.9160 ce         1 4NY       0.070100
     21 N1           2.2230     1.0200    -3.3380 n1         1 4NY      -0.512000
     22 C7           1.4960    -0.2470    -0.1300 cf         1 4NY      -0.122000
     23 C8           0.0620    -0.2510    -0.4430 cd         1 4NY      -0.099200
     24 C13         -1.8240    -3.1130     1.2290 ca         1 4NY      -0.135000
     25 C12         -3.1000    -2.7400     0.7460 ca         1 4NY       0.132000
     26 Cl          -4.5090    -3.7000     1.1780 cl         1 4NY      -0.224000
     27 C11         -3.2550    -1.6070    -0.0790 ca         1 4NY      -0.115000
     28 C10         -2.1050    -0.8680    -0.3990 ca         1 4NY      -0.046200
     29 N           -1.9670     0.2740    -1.1750 na         1 4NY      -0.083700
     30 C9          -0.6220     0.6860    -1.2110 cc         1 4NY      -0.134100
     31 F           -6.6160     3.5630     1.8640 f          1 4NY      -0.180000
     32 H2           0.3020    -2.6270     1.2570 ha         1 4NY       0.128000
     33 H3          -3.6900     0.1970    -2.3640 h1         1 4NY       0.066200
     34 H4          -2.7490     1.6830    -2.5180 h1         1 4NY       0.066200
     35 H5          -5.8540     1.1470    -1.9020 ha         1 4NY       0.121500
     36 H6          -7.3800     2.2880    -0.3010 ha         1 4NY       0.133500
     37 H7          -4.0020     3.4690     2.1030 ha         1 4NY       0.133500
     38 H9           7.0970    -0.8750    -1.5590 ha         1 4NY       0.131500
     39 H10          4.7660    -0.7740    -2.3260 ha         1 4NY       0.091500
     40 H11          3.5670     0.8320     1.5080 ha         1 4NY       0.091500
     41 H12          5.8990     0.7200     2.2860 ha         1 4NY       0.131500
     42 H13          1.7370    -0.6490     0.8530 ha         1 4NY       0.189000
     43 H14         -1.7210    -3.9900     1.8620 ha         1 4NY       0.125000
     44 H15         -4.2360    -1.3210    -0.4480 ha         1 4NY       0.125000
     45 H16         -0.2860     1.5740    -1.7380 h4         1 4NY       0.227000
     46 H1          -2.4610     2.3380     0.5160 ha         1 4NY       0.121500
@<TRIPOS>BOND
     1     1    12 1   
     2     1    13 1   
     3     1    14 1   
     4     2    20 1   
     5     2    21 3   
     6     3     7 ar  
     7     3    11 ar  
     8     3    46 1   
     9     4     5 ar  
    10     4    24 ar  
    11     4    32 1   
    12     5    23 1   
    13     5    28 ar  
    14     6     7 1   
    15     6    29 1   
    16     6    33 1   
    17     6    34 1   
    18     7     8 ar  
    19     8     9 ar  
    20     8    35 1   
    21     9    10 ar  
    22     9    36 1   
    23    10    11 ar  
    24    10    31 1   
    25    11    37 1   
    26    14    15 ar  
    27    14    19 ar  
    28    15    16 ar  
    29    15    38 1   
    30    16    17 ar  
    31    16    39 1   
    32    17    18 ar  
    33    17    20 1   
    34    18    19 ar  
    35    18    40 1   
    36    19    41 1   
    37    20    22 2   
    38    22    23 1   
    39    22    42 1   
    40    23    30 2   
    41    24    25 ar  
    42    24    43 1   
    43    25    26 1   
    44    25    27 ar  
    45    27    28 ar  
    46    27    44 1   
    47    28    29 1   
    48    29    30 1   
    49    30    45 1   
@<TRIPOS>SUBSTRUCTURE
     1 4NY         1 TEMP              0 ****  ****    0 ROOT
