@<TRIPOS>MOLECULE
4NZ
   19    19     1     0     0
SMALL
No Charge or Current Charge


@<TRIPOS>ATOM
      1 S           -2.5610     0.0540    -0.0180 sy         1 4NZ       1.130600
      2 C1           2.0720    -0.0330     0.0500 ca         1 4NZ      -0.127200
      3 N1          -2.9100     0.0320    -1.6120 n8         1 4NZ      -1.013100
      4 O1          -3.0670     1.3510     0.4240 o          1 4NZ      -0.534500
      5 C2           1.3750     1.1990     0.0160 ca         1 4NZ      -0.070000
      6 O2          -3.1160    -1.2070     0.4700 o          1 4NZ      -0.534500
      7 C3          -0.0300     1.2250    -0.0040 ca         1 4NZ      -0.022000
      8 C4          -0.7630     0.0200     0.0090 ca         1 4NZ      -0.230500
      9 C5          -0.0770    -1.2110     0.0390 ca         1 4NZ      -0.022000
     10 C6           1.3290    -1.2380     0.0600 ca         1 4NZ      -0.070000
     11 O12          4.1790     1.0190     0.0610 o          1 4NZ      -0.387500
     12 O13          4.1370    -1.1630     0.1000 o          1 4NZ      -0.387500
     13 HN1         -3.5350     0.8330    -1.6720 hn         1 4NZ       0.481000
     14 HN1A        -3.5640    -0.7470    -1.6440 hn         1 4NZ       0.481000
     15 H2           1.9160     2.1440     0.0060 ha         1 4NZ       0.157500
     16 H3          -0.5460     2.1840    -0.0320 ha         1 4NZ       0.150000
     17 H5          -0.6280    -2.1510     0.0460 ha         1 4NZ       0.150000
     18 H6           1.8330    -2.2030     0.0840 ha         1 4NZ       0.157500
     19 N7           3.5720    -0.0610     0.0720 no         1 4NZ       0.688200
@<TRIPOS>BOND
     1     1     3 1   
     2     1     4 2   
     3     1     6 2   
     4     1     8 1   
     5     2     5 ar  
     6     2    10 ar  
     7     2    19 1   
     8     3    13 1   
     9     3    14 1   
    10     5     7 ar  
    11     5    15 1   
    12     7     8 ar  
    13     7    16 1   
    14     8     9 ar  
    15     9    10 ar  
    16     9    17 1   
    17    10    18 1   
    18    11    19 1   
    19    12    19 1   
@<TRIPOS>SUBSTRUCTURE
     1 4NZ         1 TEMP              0 ****  ****    0 ROOT
