@<TRIPOS>MOLECULE
4NZ
   19    19     1     0     0
SMALL
bcc


@<TRIPOS>ATOM
      1 S           -2.5360     0.0670     0.0600 sy         1 4NZ       1.272200
      2 C1           1.9700    -0.0110     0.0270 ca         1 4NZ      -0.127200
      3 N1          -2.8620    -0.2440    -1.5240 n8         1 4NZ      -0.902700
      4 O1          -2.9500     1.3960     0.4780 o          1 4NZ      -0.605300
      5 C2           1.3270     1.2130     0.0860 ca         1 4NZ      -0.088000
      6 O2          -3.0130    -1.0870     0.8040 o          1 4NZ      -0.605300
      7 C3          -0.0580     1.2390     0.0960 ca         1 4NZ      -0.040000
      8 C4          -0.7570     0.0450     0.0400 ca         1 4NZ      -0.230500
      9 C5          -0.1060    -1.1790    -0.0180 ca         1 4NZ      -0.040000
     10 C6           1.2750    -1.2110    -0.0240 ca         1 4NZ      -0.088000
     11 O12          4.0160     1.0110     0.0840 o          1 4NZ      -0.197500
     12 O13          3.9710    -1.1190    -0.0540 o          1 4NZ      -0.197500
     13 HN1         -2.7520     0.5670    -2.1240 hn         1 4NZ       0.425800
     14 HN1A        -3.7800    -0.6610    -1.6470 hn         1 4NZ       0.425800
     15 H2           1.8810     2.1390     0.1280 ha         1 4NZ       0.175500
     16 H3          -0.5720     2.1880     0.1480 ha         1 4NZ       0.168000
     17 H5          -0.6600    -2.1070    -0.0580 ha         1 4NZ       0.168000
     18 H6           1.7900    -2.1590    -0.0660 ha         1 4NZ       0.175500
     19 N7           3.4320    -0.0420     0.0180 no         1 4NZ       0.308200
@<TRIPOS>BOND
     1     1     3 1   
     2     1     4 2   
     3     1     6 2   
     4     1     8 1   
     5     2     5 ar  
     6     2    10 ar  
     7     2    19 1   
     8     3    13 1   
     9     3    14 1   
    10     5     7 ar  
    11     5    15 1   
    12     7     8 ar  
    13     7    16 1   
    14     8     9 ar  
    15     9    10 ar  
    16     9    17 1   
    17    10    18 1   
    18    11    19 1   
    19    12    19 1   
@<TRIPOS>SUBSTRUCTURE
     1 4NZ         1 TEMP              0 ****  ****    0 ROOT
