@<TRIPOS>MOLECULE
4O1
   69    72     1     0     0
SMALL
abcg2


@<TRIPOS>ATOM
      1 C01          6.9230     2.4100    21.0610 c3         1 4O1      -0.106100
      2 C02          7.1660     3.8180    20.5060 c3         1 4O1       0.045700
      3 N01          6.3440     4.8120    21.1740 n          1 4O1      -0.392800
      4 C03          4.9740     4.5610    21.6350 c5         1 4O1       0.100000
      5 C04          4.4900     5.9630    22.0060 c5         1 4O1      -0.095400
      6 C05          5.7740     6.6220    22.5140 c5         1 4O1       0.162500
      7 N02          5.8240     8.0680    22.4940 n3         1 4O1      -0.754500
      8 C06          5.7400     8.7810    21.2320 c3         1 4O1       0.151800
      9 C07          4.3690     9.4160    20.9820 c          1 4O1       0.588100
     10 N03          4.3300    10.2040    19.8910 nt         1 4O1      -0.601000
     11 O01          3.3870     9.1580    21.6640 o          1 4O1      -0.589100
     12 S            6.0600     8.8860    23.8910 sy         1 4O1       1.228600
     13 O02          5.2610     8.2670    24.9210 o          1 4O1      -0.541500
     14 O03          5.8660    10.2830    23.5760 o          1 4O1      -0.541500
     15 C08          7.7580     8.6490    24.3380 ca         1 4O1      -0.292500
     16 C09          8.7710     9.1650    23.4970 ca         1 4O1      -0.014000
     17 C10         10.0820     8.9830    23.8370 ca         1 4O1      -0.105000
     18 C11         10.4370     8.3420    25.0520 ca         1 4O1       0.011000
     19 C12         11.7850     8.2120    25.4600 ca         1 4O1      -0.104000
     20 C13         12.0730     7.5990    26.6490 ca         1 4O1       0.142000
     21 CL          13.7410     7.4100    27.1420 cl         1 4O1      -0.206000
     22 C14         11.0660     7.0980    27.5000 ca         1 4O1      -0.110000
     23 C15          9.7540     7.2470    27.1360 ca         1 4O1      -0.073000
     24 C16          9.4040     7.8790    25.9190 ca         1 4O1      -0.069000
     25 C17          8.0540     8.0400    25.5300 ca         1 4O1       0.021000
     26 C18          6.8760     5.9390    21.6900 c          1 4O1       0.534000
     27 O04          8.0110     6.3650    21.5100 o          1 4O1      -0.555000
     28 C19          6.8900     3.8650    18.9910 c          1 4O1       0.587100
     29 O1           5.8010     4.2810    18.5840 o          1 4O1      -0.608100
     30 N04          7.8540     3.4490    18.1410 n          1 4O1      -0.409800
     31 C20          9.1560     2.9050    18.5150 c3         1 4O1       0.107000
     32 C21          9.4170     1.5110    17.8990 c3         1 4O1      -0.096400
     33 C22          8.1660     0.7010    17.5500 c3         1 4O1       0.163800
     34 N1           7.6240     1.0120    16.2180 n3         1 4O1      -0.709600
     35 C23          6.7710    -0.0840    15.7610 c3         1 4O1       0.143100
     36 C24          6.8360     2.2510    16.1910 c3         1 4O1       0.134800
     37 C1           7.5710     3.4850    16.7050 c3         1 4O1       0.097000
     38 H1           7.1190     2.3990    22.1340 hc         1 4O1       0.050033
     39 H2           5.9010     2.0800    20.8790 hc         1 4O1       0.050033
     40 H3           7.5990     1.6980    20.5930 hc         1 4O1       0.050033
     41 H4           8.1970     4.1010    20.7020 h1         1 4O1       0.088700
     42 H5           4.3930     4.1090    20.8360 h1         1 4O1       0.058700
     43 H6           4.9660     3.8890    22.4970 h1         1 4O1       0.058700
     44 H7           4.1370     6.4740    21.1100 hc         1 4O1       0.081700
     45 H8           3.6940     5.9780    22.7470 hc         1 4O1       0.081700
     46 H9           5.9350     6.2920    23.5430 h1         1 4O1       0.083700
     47 H10          5.9440     8.0760    20.4260 h1         1 4O1       0.075200
     48 H11          6.5070     9.5530    21.1690 h1         1 4O1       0.075200
     49 H12          3.4910    10.7280    19.6910 hn         1 4O1       0.313500
     50 H13          5.1750    10.4790    19.4170 hn         1 4O1       0.313500
     51 H14          8.5120     9.6390    22.5610 ha         1 4O1       0.122000
     52 H15         10.8690     9.3260    23.1770 ha         1 4O1       0.121000
     53 H16         12.5770     8.5160    24.7890 ha         1 4O1       0.134000
     54 H17         11.3330     6.6810    28.4620 ha         1 4O1       0.133000
     55 H18          8.9670     6.8790    27.7820 ha         1 4O1       0.123000
     56 H19          7.2660     7.6720    26.1710 ha         1 4O1       0.141000
     57 H20          9.2160     2.8350    19.5940 h1         1 4O1       0.048700
     58 H21          9.9290     3.6010    18.1820 h1         1 4O1       0.048700
     59 H22         10.0160     0.9450    18.6130 hc         1 4O1       0.056200
     60 H23          9.9970     1.6270    16.9820 hc         1 4O1       0.056200
     61 H24          7.3980     0.8210    18.3300 h1         1 4O1       0.032700
     62 H25          8.4340    -0.3560    17.5530 h1         1 4O1       0.032700
     63 H27          7.3310    -1.0200    15.7760 h1         1 4O1       0.033700
     64 H28          5.8720    -0.2040    16.3880 h1         1 4O1       0.033700
     65 H29          6.4460     0.1050    14.7360 h1         1 4O1       0.033700
     66 H30          6.6090     2.4490    15.1400 h1         1 4O1       0.047700
     67 H31          5.8910     2.1310    16.7410 h1         1 4O1       0.047700
     68 H32          8.5180     3.6030    16.1800 h1         1 4O1       0.066200
     69 H33          6.9450     4.3530    16.5130 h1         1 4O1       0.066200
@<TRIPOS>BOND
     1     1     2 1   
     2     1    38 1   
     3     1    39 1   
     4     1    40 1   
     5     2     3 1   
     6     2    28 1   
     7     2    41 1   
     8     3     4 1   
     9     3    26 1   
    10     4     5 1   
    11     4    42 1   
    12     4    43 1   
    13     5     6 1   
    14     5    44 1   
    15     5    45 1   
    16     6     7 1   
    17     6    26 1   
    18     6    46 1   
    19     7     8 1   
    20     7    12 1   
    21     8     9 1   
    22     8    47 1   
    23     8    48 1   
    24     9    10 1   
    25     9    11 2   
    26    10    49 1   
    27    10    50 1   
    28    12    13 2   
    29    12    14 2   
    30    12    15 1   
    31    15    16 ar  
    32    15    25 ar  
    33    16    17 ar  
    34    16    51 1   
    35    17    18 ar  
    36    17    52 1   
    37    18    19 ar  
    38    18    24 ar  
    39    19    20 ar  
    40    19    53 1   
    41    20    21 1   
    42    20    22 ar  
    43    22    23 ar  
    44    22    54 1   
    45    23    24 ar  
    46    23    55 1   
    47    24    25 ar  
    48    25    56 1   
    49    26    27 2   
    50    28    29 2   
    51    28    30 1   
    52    30    31 1   
    53    30    37 1   
    54    31    32 1   
    55    31    57 1   
    56    31    58 1   
    57    32    33 1   
    58    32    59 1   
    59    32    60 1   
    60    33    34 1   
    61    33    61 1   
    62    33    62 1   
    63    34    35 1   
    64    34    36 1   
    65    35    63 1   
    66    35    64 1   
    67    35    65 1   
    68    36    37 1   
    69    36    66 1   
    70    36    67 1   
    71    37    68 1   
    72    37    69 1   
@<TRIPOS>SUBSTRUCTURE
     1 4O1         1 TEMP              0 ****  ****    0 ROOT
