@<TRIPOS>MOLECULE
4O1
   69    72     1     0     0
SMALL
No Charge or Current Charge


@<TRIPOS>ATOM
      1 C01          7.1540     2.1430    21.1430 c3         1 4O1      -0.106100
      2 C02          7.3640     3.6100    20.6830 c3         1 4O1       0.045700
      3 N01          6.9220     4.6040    21.7070 n          1 4O1      -0.392800
      4 C03          5.9890     4.3300    22.8260 c5         1 4O1       0.100000
      5 C04          5.3710     5.7330    23.1010 c5         1 4O1      -0.095400
      6 C05          6.5360     6.6910    22.7080 c5         1 4O1       0.162500
      7 N02          5.9530     8.0560    22.4000 n3         1 4O1      -0.754500
      8 C06          5.1420     8.1570    21.1290 c3         1 4O1       0.151800
      9 C07          4.1550     9.3560    20.9800 c          1 4O1       0.588100
     10 N03          4.5840    10.4180    20.2530 nt         1 4O1      -0.601000
     11 O01          3.0330     9.3720    21.4660 o          1 4O1      -0.589100
     12 S            6.8720     9.4720    22.6970 sy         1 4O1       1.228600
     13 O02          5.9900    10.3770    23.4410 o          1 4O1      -0.541500
     14 O03          7.4890     9.8480    21.4210 o          1 4O1      -0.541500
     15 C08          8.1720     8.9110    23.8110 ca         1 4O1      -0.292500
     16 C09          9.4200     8.4990    23.2980 ca         1 4O1      -0.014000
     17 C10         10.4190     8.0380    24.1710 ca         1 4O1      -0.105000
     18 C11         10.1820     7.9850    25.5560 ca         1 4O1       0.011000
     19 C12         11.1830     7.5210    26.4300 ca         1 4O1      -0.104000
     20 C13         10.9400     7.4680    27.8120 ca         1 4O1       0.142000
     21 Cl          12.1930     6.8870    28.9010 cl         1 4O1      -0.206000
     22 C14          9.7000     7.8760    28.3280 ca         1 4O1      -0.110000
     23 C15          8.6950     8.3410    27.4600 ca         1 4O1      -0.073000
     24 C16          8.9330     8.3980    26.0730 ca         1 4O1      -0.069000
     25 C17          7.9310     8.8600    25.1990 ca         1 4O1       0.021000
     26 C18          7.2640     5.9520    21.5530 c          1 4O1       0.534000
     27 O04          7.9790     6.3990    20.6630 o          1 4O1      -0.555000
     28 C19          6.7030     3.8420    19.2820 c          1 4O1       0.587100
     29 O1           5.6270     4.4280    19.1950 o          1 4O1      -0.608100
     30 N04          7.3220     3.2980    18.1220 n          1 4O1      -0.409800
     31 C20          8.7690     2.9510    18.1260 c3         1 4O1       0.107000
     32 C21          9.3480     2.3350    16.8340 c3         1 4O1      -0.096400
     33 C22          8.6540     1.0340    16.3780 c3         1 4O1       0.163800
     34 N1           7.4360     1.2310    15.5540 n3         1 4O1      -0.709600
     35 C23          6.9970    -0.0300    14.9130 c3         1 4O1       0.143100
     36 C24          6.3090     1.9140    16.2480 c3         1 4O1       0.134800
     37 C1           6.6140     3.3220    16.8100 c3         1 4O1       0.097000
     38 H1           7.6440     1.9680    22.1080 hc         1 4O1       0.050033
     39 H2           6.0870     1.9140    21.2480 hc         1 4O1       0.050033
     40 H3           7.5710     1.4320    20.4210 hc         1 4O1       0.050033
     41 H4           8.4420     3.7610    20.5570 h1         1 4O1       0.088700
     42 H5           5.2160     3.5960    22.5640 h1         1 4O1       0.058700
     43 H6           6.5410     3.9570    23.6990 h1         1 4O1       0.058700
     44 H7           4.4720     5.8600    22.4930 hc         1 4O1       0.081700
     45 H8           5.0640     5.8560    24.1450 hc         1 4O1       0.081700
     46 H9           7.2370     6.6980    23.5510 h1         1 4O1       0.083700
     47 H10          4.5260     7.2670    20.9720 h1         1 4O1       0.075200
     48 H11          5.8160     8.1930    20.2620 h1         1 4O1       0.075200
     49 H12          3.9750    11.2130    20.1340 hn         1 4O1       0.313500
     50 H13          5.5180    10.4250    19.8670 hn         1 4O1       0.313500
     51 H14          9.6170     8.5250    22.2280 ha         1 4O1       0.122000
     52 H15         11.3780     7.7210    23.7660 ha         1 4O1       0.121000
     53 H16         12.1470     7.2020    26.0420 ha         1 4O1       0.134000
     54 H17          9.5170     7.8330    29.3980 ha         1 4O1       0.133000
     55 H18          7.7370     8.6550    27.8680 ha         1 4O1       0.123000
     56 H19          6.9670     9.1690    25.6010 ha         1 4O1       0.141000
     57 H20          8.9610     2.2360    18.9350 h1         1 4O1       0.048700
     58 H21          9.3370     3.8620    18.3560 h1         1 4O1       0.048700
     59 H22         10.4030     2.1060    17.0250 hc         1 4O1       0.056200
     60 H23          9.3430     3.0690    16.0190 hc         1 4O1       0.056200
     61 H24          8.4290     0.4150    17.2580 h1         1 4O1       0.032700
     62 H25          9.3900     0.4770    15.7820 h1         1 4O1       0.032700
     63 H27          7.8110    -0.4710    14.3220 h1         1 4O1       0.033700
     64 H28          6.6820    -0.7640    15.6670 h1         1 4O1       0.033700
     65 H29          6.1520     0.1520    14.2350 h1         1 4O1       0.033700
     66 H30          5.4810     2.0320    15.5350 h1         1 4O1       0.047700
     67 H31          5.9290     1.2880    17.0670 h1         1 4O1       0.047700
     68 H32          7.2000     3.8930    16.0780 h1         1 4O1       0.066200
     69 H33          5.6560     3.8450    16.9060 h1         1 4O1       0.066200
@<TRIPOS>BOND
     1     1     2 1   
     2     1    38 1   
     3     1    39 1   
     4     1    40 1   
     5     2     3 1   
     6     2    28 1   
     7     2    41 1   
     8     3     4 1   
     9     3    26 1   
    10     4     5 1   
    11     4    42 1   
    12     4    43 1   
    13     5     6 1   
    14     5    44 1   
    15     5    45 1   
    16     6     7 1   
    17     6    26 1   
    18     6    46 1   
    19     7     8 1   
    20     7    12 1   
    21     8     9 1   
    22     8    47 1   
    23     8    48 1   
    24     9    10 1   
    25     9    11 2   
    26    10    49 1   
    27    10    50 1   
    28    12    13 2   
    29    12    14 2   
    30    12    15 1   
    31    15    16 ar  
    32    15    25 ar  
    33    16    17 ar  
    34    16    51 1   
    35    17    18 ar  
    36    17    52 1   
    37    18    19 ar  
    38    18    24 ar  
    39    19    20 ar  
    40    19    53 1   
    41    20    21 1   
    42    20    22 ar  
    43    22    23 ar  
    44    22    54 1   
    45    23    24 ar  
    46    23    55 1   
    47    24    25 ar  
    48    25    56 1   
    49    26    27 2   
    50    28    29 2   
    51    28    30 1   
    52    30    31 1   
    53    30    37 1   
    54    31    32 1   
    55    31    57 1   
    56    31    58 1   
    57    32    33 1   
    58    32    59 1   
    59    32    60 1   
    60    33    34 1   
    61    33    61 1   
    62    33    62 1   
    63    34    35 1   
    64    34    36 1   
    65    35    63 1   
    66    35    64 1   
    67    35    65 1   
    68    36    37 1   
    69    36    66 1   
    70    36    67 1   
    71    37    68 1   
    72    37    69 1   
@<TRIPOS>SUBSTRUCTURE
     1 4O1         1 TEMP              0 ****  ****    0 ROOT
