@<TRIPOS>MOLECULE
4O2
   50    54     1     0     0
SMALL
bcc


@<TRIPOS>ATOM
      1 C1          -4.5880    -0.3400     0.4140 c3         1 4O2       0.131000
      2 C2          -4.6970    -0.8430    -1.0160 c3         1 4O2      -0.234400
      3 C3          -6.0530    -1.4920    -1.3510 c          1 4O2       0.937600
      4 C4          -3.0230     1.6020     0.4900 c          1 4O2       0.701500
      5 C5          -1.5580     1.7920     0.8140 c5         1 4O2       0.012700
      6 C6          -0.7430     2.3510    -0.3520 c6         1 4O2      -0.001200
      7 C7           0.2090     0.1060     1.4820 c6         1 4O2       0.191200
      8 C8           1.1010     1.0380     0.7370 cc         1 4O2      -0.073300
      9 C10          1.8770     2.6830    -0.5670 ca         1 4O2      -0.081800
     10 C11          2.1180     3.7600    -1.4260 ca         1 4O2      -0.075000
     11 C13          4.4980     3.4310    -1.1110 ca         1 4O2      -0.117000
     12 C14          4.2890     2.3650    -0.2550 ca         1 4O2      -0.150000
     13 C17          3.2460    -1.3300     0.8570 ca         1 4O2      -0.138300
     14 C19          3.3160    -2.6920    -1.1390 ca         1 4O2      -0.167000
     15 C21          3.2790    -3.7440     1.0360 ca         1 4O2      -0.167000
     16 C20          3.3160    -3.8210    -0.3420 ca         1 4O2       0.145900
     17 C18          3.2820    -1.4460    -0.5290 ca         1 4O2      -0.086000
     18 C22          3.2410    -2.4880     1.6270 ca         1 4O2      -0.086000
     19 N2           2.4700     1.0100     0.8190 na         1 4O2      -0.057400
     20 N1          -1.1500     0.4470     1.1480 n          1 4O2      -0.504800
     21 C           -2.1650    -0.4340     1.0570 c          1 4O2       0.825500
     22 O           -2.1340    -1.6280     1.2620 o          1 4O2      -0.620500
     23 C15          2.9710     2.0030     0.0150 ca         1 4O2      -0.043200
     24 C12          3.4240     4.1250    -1.6900 ca         1 4O2      -0.163000
     25 C9           0.6930     2.0450    -0.0860 cd         1 4O2      -0.127400
     26 O3          -3.7950     2.4570     0.1190 o          1 4O2      -0.586500
     27 N           -3.3020     0.2840     0.6790 n          1 4O2      -0.501400
     28 O2          -6.1650    -1.9570    -2.5010 o          1 4O2      -0.840300
     29 O1          -6.9200    -1.4970    -0.4550 o          1 4O2      -0.840300
     30 H1          -5.3580     0.3990     0.6280 h1         1 4O2       0.070200
     31 H2          -4.7170    -1.1510     1.1280 h1         1 4O2       0.070200
     32 H3          -4.5280    -0.0140    -1.7120 hc         1 4O2       0.030200
     33 H4          -3.9010    -1.5660    -1.2160 hc         1 4O2       0.030200
     34 H5          -1.4620     2.4560     1.6810 h1         1 4O2       0.076700
     35 H6          -1.0740     1.9040    -1.2950 hc         1 4O2       0.068700
     36 H7          -0.9150     3.4260    -0.4330 hc         1 4O2       0.068700
     37 H8           0.3920    -0.9340     1.1990 h1         1 4O2       0.063200
     38 H9           0.3820     0.1780     2.5620 h1         1 4O2       0.063200
     39 H10          1.2940     4.2990    -1.8780 ha         1 4O2       0.136000
     40 H11          5.5110     3.7360    -1.3360 ha         1 4O2       0.122000
     41 H12          5.1270     1.8370     0.1830 ha         1 4O2       0.127000
     42 H13          3.3410    -2.7800    -2.2180 ha         1 4O2       0.152000
     43 H14          3.2710    -4.6410     1.6390 ha         1 4O2       0.152000
     44 H15          3.2790    -0.5630    -1.1550 ha         1 4O2       0.140000
     45 H16          3.2020    -2.4170     2.7070 ha         1 4O2       0.140000
     46 H19          3.6250     4.9560    -2.3520 ha         1 4O2       0.125000
     47 F            3.3470    -5.0290    -0.9260 f          1 4O2      -0.142900
     48 H17          2.8530    -0.0750     2.5510 h1         1 4O2       0.062200
     49 H18          4.2560     0.3960     1.6380 h1         1 4O2       0.062200
     50 C16          3.2370     0.0200     1.5330 c3         1 4O2       0.100600
@<TRIPOS>BOND
     1     1     2 1   
     2     1    27 1   
     3     1    30 1   
     4     1    31 1   
     5     2     3 1   
     6     2    32 1   
     7     2    33 1   
     8     3    28 1   
     9     3    29 1   
    10     4     5 1   
    11     4    26 2   
    12     4    27 1   
    13     5     6 1   
    14     5    20 1   
    15     5    34 1   
    16     6    25 1   
    17     6    35 1   
    18     6    36 1   
    19     7     8 1   
    20     7    20 1   
    21     7    37 1   
    22     7    38 1   
    23     8    19 1   
    24     8    25 2   
    25     9    10 ar  
    26     9    23 ar  
    27     9    25 1   
    28    10    24 ar  
    29    10    39 1   
    30    11    12 ar  
    31    11    24 ar  
    32    11    40 1   
    33    12    23 ar  
    34    12    41 1   
    35    13    17 ar  
    36    13    18 ar  
    37    13    50 1   
    38    14    16 ar  
    39    14    17 ar  
    40    14    42 1   
    41    15    16 ar  
    42    15    18 ar  
    43    15    43 1   
    44    16    47 1   
    45    17    44 1   
    46    18    45 1   
    47    19    23 1   
    48    19    50 1   
    49    20    21 1   
    50    21    22 2   
    51    21    27 1   
    52    24    46 1   
    53    48    50 1   
    54    49    50 1   
@<TRIPOS>SUBSTRUCTURE
     1 4O2         1 TEMP              0 ****  ****    0 ROOT
