@<TRIPOS>MOLECULE
4O2
   50    54     1     0     0
SMALL
No Charge or Current Charge


@<TRIPOS>ATOM
      1 C1          -4.7930    -0.2490     0.3940 c3         1 4O2       0.131000
      2 C2          -5.0340    -0.7700    -1.0340 c3         1 4O2      -0.234400
      3 C3          -6.4580    -1.3200    -1.1200 c          1 4O2       0.727000
      4 C4          -3.1510     1.6570     0.3640 c          1 4O2       0.559000
      5 C5          -1.6500     1.7660     0.7470 c5         1 4O2       0.012700
      6 C6          -0.7220     2.3230    -0.3660 c6         1 4O2      -0.001200
      7 C7           0.1060    -0.0440     1.3910 c6         1 4O2       0.191200
      8 C8           1.0710     0.9270     0.7470 cc         1 4O2      -0.073300
      9 C10          1.9280     2.6770    -0.4970 ca         1 4O2      -0.081800
     10 C11          2.1100     3.7960    -1.3200 ca         1 4O2      -0.057000
     11 C13          4.5270     3.4930    -1.0350 ca         1 4O2      -0.099000
     12 C14          4.3090     2.3670    -0.2110 ca         1 4O2      -0.132000
     13 C17          3.4890    -1.3720     0.8280 ca         1 4O2      -0.138300
     14 C19          3.8360    -2.6890    -1.2000 ca         1 4O2      -0.149000
     15 C21          3.5690    -3.8100     0.9420 ca         1 4O2      -0.149000
     16 C20          3.7700    -3.8690    -0.4450 ca         1 4O2       0.181000
     17 C18          3.6970    -1.4420    -0.5670 ca         1 4O2      -0.068000
     18 C22          3.4300    -2.5640     1.5790 ca         1 4O2      -0.068000
     19 N2           2.4760     0.9300     0.8030 na         1 4O2      -0.086700
     20 N1          -1.2830     0.3780     1.1130 n          1 4O2      -0.437800
     21 C           -2.3760    -0.4630     1.0140 c          1 4O2       0.616000
     22 O           -2.3880    -1.6590     1.2580 o          1 4O2      -0.545000
     23 C15          2.9810     1.9840     0.0450 ca         1 4O2      -0.043200
     24 C12          3.4340     4.2040    -1.5860 ca         1 4O2      -0.145000
     25 C9           0.7280     2.0100    -0.0540 cd         1 4O2      -0.127400
     26 O3          -3.9310     2.5150    -0.0290 o          1 4O2      -0.511000
     27 N           -3.4380     0.3060     0.5730 n          1 4O2      -0.367400
     28 O2          -6.6400    -2.4910    -0.8270 o          1 4O2      -0.735000
     29 O1          -7.3550    -0.5470    -1.4160 o          1 4O2      -0.735000
     30 H1          -5.5340     0.5280     0.6290 h1         1 4O2       0.070200
     31 H2          -4.9450    -1.0660     1.1120 h1         1 4O2       0.070200
     32 H3          -4.9090     0.0930    -1.6990 hc         1 4O2       0.030200
     33 H4          -4.2980    -1.5670    -1.1950 hc         1 4O2       0.030200
     34 H5          -1.5770     2.4140     1.6290 h1         1 4O2       0.076700
     35 H6          -0.9940     1.8690    -1.3280 hc         1 4O2       0.068700
     36 H7          -0.8810     3.4040    -0.4750 hc         1 4O2       0.068700
     37 H8           0.2700    -1.0570     0.9980 h1         1 4O2       0.063200
     38 H9           0.2610    -0.0780     2.4780 h1         1 4O2       0.063200
     39 H10          1.2610     4.3290    -1.7410 ha         1 4O2       0.118000
     40 H11          5.5440     3.8140    -1.2510 ha         1 4O2       0.104000
     41 H12          5.1510     1.8200     0.2040 ha         1 4O2       0.109000
     42 H13          3.9950    -2.7430    -2.2740 ha         1 4O2       0.134000
     43 H14          3.5210    -4.7290     1.5210 ha         1 4O2       0.134000
     44 H15          3.7520    -0.5330    -1.1630 ha         1 4O2       0.122000
     45 H16          3.2740    -2.5270     2.6550 ha         1 4O2       0.122000
     46 H19          3.6150     5.0680    -2.2210 ha         1 4O2       0.107000
     47 F            3.9040    -5.0670    -1.0550 f          1 4O2      -0.178000
     48 H17          2.8910    -0.1810     2.5230 h1         1 4O2       0.062200
     49 H18          4.3230     0.4150     1.6930 h1         1 4O2       0.062200
     50 C16          3.3330    -0.0250     1.5310 c3         1 4O2       0.129900
@<TRIPOS>BOND
     1     1     2 1   
     2     1    27 1   
     3     1    30 1   
     4     1    31 1   
     5     2     3 1   
     6     2    32 1   
     7     2    33 1   
     8     3    28 1   
     9     3    29 1   
    10     4     5 1   
    11     4    26 2   
    12     4    27 1   
    13     5     6 1   
    14     5    20 1   
    15     5    34 1   
    16     6    25 1   
    17     6    35 1   
    18     6    36 1   
    19     7     8 1   
    20     7    20 1   
    21     7    37 1   
    22     7    38 1   
    23     8    19 1   
    24     8    25 2   
    25     9    10 ar  
    26     9    23 ar  
    27     9    25 1   
    28    10    24 ar  
    29    10    39 1   
    30    11    12 ar  
    31    11    24 ar  
    32    11    40 1   
    33    12    23 ar  
    34    12    41 1   
    35    13    17 ar  
    36    13    18 ar  
    37    13    50 1   
    38    14    16 ar  
    39    14    17 ar  
    40    14    42 1   
    41    15    16 ar  
    42    15    18 ar  
    43    15    43 1   
    44    16    47 1   
    45    17    44 1   
    46    18    45 1   
    47    19    23 1   
    48    19    50 1   
    49    20    21 1   
    50    21    22 2   
    51    21    27 1   
    52    24    46 1   
    53    48    50 1   
    54    49    50 1   
@<TRIPOS>SUBSTRUCTURE
     1 4O2         1 TEMP              0 ****  ****    0 ROOT
