@<TRIPOS>MOLECULE
4O3
   42    46     1     0     0
SMALL
No Charge or Current Charge


@<TRIPOS>ATOM
      1 C15         -0.8440    -0.9520     0.8520 c6         1 4O3       0.189200
      2 C17         -4.3320    -0.8700    -0.6780 c          1 4O3       0.566000
      3 O1          -2.0050    -3.4470    -0.3350 o          1 4O3      -0.544000
      4 C16         -2.6080    -2.3900    -0.2870 c          1 4O3       0.624000
      5 N2          -3.8280    -2.1300    -0.8010 ns         1 4O3      -0.481500
      6 O           -5.4010    -0.4750    -1.1150 o          1 4O3      -0.501000
      7 C18         -3.2080    -0.1400     0.1060 c5         1 4O3       0.016700
      8 C19         -2.6030     1.0950    -0.6100 c6         1 4O3       0.003800
      9 C13         -1.2590     1.4400    -0.0140 cc         1 4O3      -0.135400
     10 C8          -0.5040     2.6600    -0.0390 ca         1 4O3      -0.084800
     11 C9          -0.8290     3.9010    -0.6020 ca         1 4O3      -0.061000
     12 C10          0.1130     4.9440    -0.4900 ca         1 4O3      -0.136000
     13 C11          1.3440     4.7250     0.1710 ca         1 4O3      -0.090000
     14 C12          1.6410     3.4620     0.7260 ca         1 4O3      -0.129000
     15 C7           0.6850     2.4380     0.6050 ca         1 4O3      -0.039200
     16 N1          -2.1860    -1.2030     0.2840 n          1 4O3      -0.426800
     17 C14         -0.4640     0.5050     0.6480 cd         1 4O3      -0.079300
     18 N            0.7400     1.1220     1.0540 na         1 4O3      -0.081700
     19 C6           1.8900     0.5000     1.7400 c3         1 4O3       0.126900
     20 C5           2.5670    -0.5950     0.9190 ca         1 4O3      -0.142300
     21 C2           2.8350    -0.4030    -0.4530 ca         1 4O3      -0.069000
     22 C1           3.4500    -1.4210    -1.2020 ca         1 4O3      -0.149500
     23 C4           2.9260    -1.8130     1.5330 ca         1 4O3      -0.069000
     24 C3           3.5410    -2.8290     0.7800 ca         1 4O3      -0.149500
     25 C            3.8000    -2.6310    -0.5840 ca         1 4O3       0.182000
     26 F            4.3910    -3.6080    -1.3050 f          1 4O3      -0.175000
     27 H1          -0.8500    -1.1970     1.9230 h1         1 4O3       0.069700
     28 H2          -0.1070    -1.6040     0.3610 h1         1 4O3       0.069700
     29 H3          -4.3430    -2.8480    -1.2840 hn         1 4O3       0.357500
     30 H4          -3.6140     0.1650     1.0790 h1         1 4O3       0.091700
     31 H5          -2.4830     0.8740    -1.6800 hc         1 4O3       0.068200
     32 H6          -3.3010     1.9410    -0.5440 hc         1 4O3       0.068200
     33 H7          -1.7770     4.0560    -1.1120 ha         1 4O3       0.117000
     34 H8          -0.1070     5.9210    -0.9160 ha         1 4O3       0.114000
     35 H9           2.0660     5.5340     0.2520 ha         1 4O3       0.112000
     36 H10          2.5900     3.3000     1.2300 ha         1 4O3       0.116000
     37 H11          2.6320     1.2650     1.9940 h1         1 4O3       0.066200
     38 H12          1.5260     0.0790     2.6850 h1         1 4O3       0.066200
     39 H13          2.5680     0.5330    -0.9400 ha         1 4O3       0.123000
     40 H14          3.6560    -1.2750    -2.2590 ha         1 4O3       0.136000
     41 H15          2.7280    -1.9750     2.5910 ha         1 4O3       0.123000
     42 H16          3.8170    -3.7690     1.2520 ha         1 4O3       0.136000
@<TRIPOS>BOND
     1     1    16 1   
     2     1    17 1   
     3     1    27 1   
     4     1    28 1   
     5     2     5 1   
     6     2     6 2   
     7     2     7 1   
     8     3     4 2   
     9     4     5 1   
    10     4    16 1   
    11     5    29 1   
    12     7     8 1   
    13     7    16 1   
    14     7    30 1   
    15     8     9 1   
    16     8    31 1   
    17     8    32 1   
    18     9    10 1   
    19     9    17 2   
    20    10    11 ar  
    21    10    15 ar  
    22    11    12 ar  
    23    11    33 1   
    24    12    13 ar  
    25    12    34 1   
    26    13    14 ar  
    27    13    35 1   
    28    14    15 ar  
    29    14    36 1   
    30    15    18 1   
    31    17    18 1   
    32    18    19 1   
    33    19    20 1   
    34    19    37 1   
    35    19    38 1   
    36    20    21 ar  
    37    20    23 ar  
    38    21    22 ar  
    39    21    39 1   
    40    22    25 ar  
    41    22    40 1   
    42    23    24 ar  
    43    23    41 1   
    44    24    25 ar  
    45    24    42 1   
    46    25    26 1   
@<TRIPOS>SUBSTRUCTURE
     1 4O3         1 TEMP              0 ****  ****    0 ROOT
