@<TRIPOS>MOLECULE
4O3
   42    46     1     0     0
SMALL
bcc


@<TRIPOS>ATOM
      1 C15         -0.9600    -0.9110     0.9920 c6         1 4O3       0.189200
      2 C17         -4.2970    -0.8480    -0.6070 c          1 4O3       0.708500
      3 O1          -2.0150    -3.3960    -0.1530 o          1 4O3      -0.619500
      4 C16         -2.6110    -2.3430    -0.1680 c          1 4O3       0.833500
      5 N2          -3.8730    -2.1340    -0.7250 ns         1 4O3      -0.615500
      6 O           -5.3310    -0.3780    -1.0190 o          1 4O3      -0.576500
      7 C18         -3.2000    -0.1120     0.1330 c5         1 4O3       0.016700
      8 C19         -2.6150     1.0630    -0.6500 c6         1 4O3       0.003800
      9 C13         -1.2750     1.3740    -0.0710 cc         1 4O3      -0.135400
     10 C8          -0.5010     2.5740    -0.1340 ca         1 4O3      -0.084800
     11 C9          -0.6950     3.8220    -0.7330 ca         1 4O3      -0.079000
     12 C10          0.2890     4.7830    -0.6060 ca         1 4O3      -0.154000
     13 C11          1.4680     4.5190     0.1080 ca         1 4O3      -0.108000
     14 C12          1.6860     3.2940     0.7120 ca         1 4O3      -0.147000
     15 C7           0.6880     2.3290     0.5890 ca         1 4O3      -0.039200
     16 N1          -2.2190    -1.1560     0.3350 n          1 4O3      -0.493800
     17 C14         -0.5480     0.4820     0.6600 cd         1 4O3      -0.079300
     18 N            0.6290     1.0470     1.0780 na         1 4O3      -0.052400
     19 C6           1.6750     0.3510     1.7860 c3         1 4O3       0.097600
     20 C5           2.4570    -0.5980     0.9100 ca         1 4O3      -0.142300
     21 C2           2.7820    -0.2660    -0.4030 ca         1 4O3      -0.087000
     22 C1           3.5220    -1.1320    -1.1940 ca         1 4O3      -0.167500
     23 C4           2.8840    -1.8210     1.4170 ca         1 4O3      -0.087000
     24 C3           3.6290    -2.6990     0.6420 ca         1 4O3      -0.167500
     25 C            3.9350    -2.3340    -0.6540 ca         1 4O3       0.146900
     26 F            4.6540    -3.1750    -1.4150 f          1 4O3      -0.139900
     27 H1          -1.0470    -1.0500     2.0760 h1         1 4O3       0.069700
     28 H2          -0.2270    -1.6390     0.6360 h1         1 4O3       0.069700
     29 H3          -4.3900    -2.8680    -1.1880 hn         1 4O3       0.357500
     30 H4          -3.5880     0.2450     1.0940 h1         1 4O3       0.091700
     31 H5          -2.5350     0.8110    -1.7120 hc         1 4O3       0.068200
     32 H6          -3.2910     1.9160    -0.5780 hc         1 4O3       0.068200
     33 H7          -1.6000     4.0320    -1.2890 ha         1 4O3       0.135000
     34 H8           0.1550     5.7530    -1.0670 ha         1 4O3       0.132000
     35 H9           2.2240     5.2890     0.1880 ha         1 4O3       0.130000
     36 H10          2.6030     3.1020     1.2540 ha         1 4O3       0.134000
     37 H11          2.3360     1.0970     2.2300 h1         1 4O3       0.066200
     38 H12          1.2410    -0.1920     2.6280 h1         1 4O3       0.066200
     39 H13          2.4570     0.6760    -0.8270 ha         1 4O3       0.141000
     40 H14          3.7720    -0.8740    -2.2150 ha         1 4O3       0.154000
     41 H15          2.6310    -2.1000     2.4330 ha         1 4O3       0.141000
     42 H16          3.9570    -3.6500     1.0390 ha         1 4O3       0.154000
@<TRIPOS>BOND
     1     1    16 1   
     2     1    17 1   
     3     1    27 1   
     4     1    28 1   
     5     2     5 1   
     6     2     6 2   
     7     2     7 1   
     8     3     4 2   
     9     4     5 1   
    10     4    16 1   
    11     5    29 1   
    12     7     8 1   
    13     7    16 1   
    14     7    30 1   
    15     8     9 1   
    16     8    31 1   
    17     8    32 1   
    18     9    10 1   
    19     9    17 2   
    20    10    11 ar  
    21    10    15 ar  
    22    11    12 ar  
    23    11    33 1   
    24    12    13 ar  
    25    12    34 1   
    26    13    14 ar  
    27    13    35 1   
    28    14    15 ar  
    29    14    36 1   
    30    15    18 1   
    31    17    18 1   
    32    18    19 1   
    33    19    20 1   
    34    19    37 1   
    35    19    38 1   
    36    20    21 ar  
    37    20    23 ar  
    38    21    22 ar  
    39    21    39 1   
    40    22    25 ar  
    41    22    40 1   
    42    23    24 ar  
    43    23    41 1   
    44    24    25 ar  
    45    24    42 1   
    46    25    26 1   
@<TRIPOS>SUBSTRUCTURE
     1 4O3         1 TEMP              0 ****  ****    0 ROOT
