@<TRIPOS>MOLECULE
4O4
   64    67     1     0     0
SMALL
No Charge or Current Charge


@<TRIPOS>ATOM
      1 C1           4.0550     8.6340    17.1700 c3         1 4O4      -0.077100
      2 C2           4.8020     9.1510    18.4190 c3         1 4O4      -0.180400
      3 C3           4.4900     8.2890    19.6540 c          1 4O4       0.562100
      4 O4           3.4980     8.5100    20.3420 o          1 4O4      -0.504100
      5 C5           5.4640     7.1150    19.9560 c3         1 4O4       0.116800
      6 N6           6.3310     7.2050    21.1900 n3         1 4O4      -0.749500
      7 C7           6.9450     5.9040    21.6390 c5         1 4O4       0.200700
      8 C8           5.7680     4.9850    21.9240 c2         1 4O4      -0.283200
      9 C9           5.8880     3.8930    21.1690 c2         1 4O4      -0.061400
     10 N10          7.0340     3.9270    20.3630 n          1 4O4      -0.322000
     11 C11          7.3900     2.9740    19.2710 c3         1 4O4       0.050700
     12 C12          6.6950     1.5950    19.4140 c3         1 4O4      -0.098100
     13 C13          7.1540     3.5710    17.8430 c          1 4O4       0.590100
     14 O14          6.4790     4.5840    17.6890 o          1 4O4      -0.621100
     15 N15          7.6500     2.8790    16.7050 n          1 4O4      -0.405800
     16 C16          8.8210     1.9470    16.7410 c6         1 4O4       0.062500
     17 C17         10.0410     2.5550    15.9990 c6         1 4O4       0.131100
     18 O18          9.6660     2.9350    14.6550 os         1 4O4      -0.451000
     19 C19          8.5930     3.9050    14.6140 c6         1 4O4       0.131100
     20 C20          7.3350     3.3290    15.3150 c6         1 4O4       0.062500
     21 C21          7.7700     5.1140    20.5530 c          1 4O4       0.523000
     22 O22          8.8080     5.4120    19.9710 o          1 4O4      -0.524000
     23 S23          7.2890     8.6220    21.2190 sy         1 4O4       1.225600
     24 O24          6.3930     9.7040    21.6380 o          1 4O4      -0.540000
     25 O25          8.0300     8.6610    19.9550 o          1 4O4      -0.540000
     26 C26          8.4370     8.3080    22.5710 ca         1 4O4      -0.296500
     27 C27          9.7520     7.8700    22.3100 ca         1 4O4      -0.026000
     28 C28         10.6300     7.6100    23.3750 ca         1 4O4      -0.107000
     29 C29         10.2030     7.7850    24.7040 ca         1 4O4       0.014000
     30 C30         11.0820     7.5220    25.7720 ca         1 4O4      -0.104000
     31 C31         10.6500     7.6960    27.0960 ca         1 4O4       0.142000
     32 Cl1         11.7510     7.3660    28.4280 cl         1 4O4      -0.207000
     33 C33          9.3410     8.1300    27.3620 ca         1 4O4      -0.111000
     34 C34          8.4580     8.3940    26.3000 ca         1 4O4      -0.072000
     35 C35          8.8860     8.2230    24.9690 ca         1 4O4      -0.061000
     36 C36          8.0060     8.4840    23.9010 ca         1 4O4       0.033000
     37 H1           4.2900     9.2570    16.2980 hc         1 4O4       0.041033
     38 H2           4.3460     7.6020    16.9410 hc         1 4O4       0.041033
     39 H3           2.9700     8.6610    17.3260 hc         1 4O4       0.041033
     40 H4           5.8740     9.1040    18.1950 hc         1 4O4       0.064700
     41 H5           4.4960    10.1870    18.6100 hc         1 4O4       0.064700
     42 H6           4.8170     6.2300    19.9920 h1         1 4O4       0.082700
     43 H7           6.0940     6.9810    19.0670 h1         1 4O4       0.082700
     44 H8           7.5680     5.9890    22.5380 h1         1 4O4       0.110700
     45 H9           4.9570     5.1840    22.6250 ha         1 4O4       0.233000
     46 H10          5.2100     3.0380    21.1240 h4         1 4O4       0.217000
     47 H11          8.4690     2.8090    19.3630 h1         1 4O4       0.083700
     48 H12          6.8650     1.1790    20.4140 hc         1 4O4       0.054033
     49 H13          5.6140     1.6830    19.2520 hc         1 4O4       0.054033
     50 H14          7.0820     0.8750    18.6850 hc         1 4O4       0.054033
     51 H15          8.5380     1.0050    16.2500 h1         1 4O4       0.065200
     52 H16          9.1210     1.6930    17.7640 h1         1 4O4       0.065200
     53 H17         10.8570     1.8190    15.9510 h1         1 4O4       0.060700
     54 H18         10.4090     3.4390    16.5390 h1         1 4O4       0.060700
     55 H19          8.9160     4.8290    15.1160 h1         1 4O4       0.060700
     56 H20          8.3630     4.1460    13.5670 h1         1 4O4       0.060700
     57 H21          6.5380     4.0850    15.3100 h1         1 4O4       0.065200
     58 H22          6.9640     2.4710    14.7370 h1         1 4O4       0.065200
     59 H23         10.0970     7.7240    21.2870 ha         1 4O4       0.128000
     60 H24         11.6410     7.2720    23.1650 ha         1 4O4       0.118000
     61 H25         12.0960     7.1850    25.5780 ha         1 4O4       0.133000
     62 H26          9.0120     8.2620    28.3900 ha         1 4O4       0.132000
     63 H27          7.4460     8.7300    26.5140 ha         1 4O4       0.122000
     64 H28          6.9890     8.8140    24.1090 ha         1 4O4       0.135000
@<TRIPOS>BOND
     1     1     2 1   
     2     1    37 1   
     3     1    38 1   
     4     1    39 1   
     5     2     3 1   
     6     2    40 1   
     7     2    41 1   
     8     3     4 2   
     9     3     5 1   
    10     5     6 1   
    11     5    42 1   
    12     5    43 1   
    13     6     7 1   
    14     6    23 1   
    15     7     8 1   
    16     7    21 1   
    17     7    44 1   
    18     8     9 2   
    19     8    45 1   
    20     9    10 1   
    21     9    46 1   
    22    10    11 1   
    23    10    21 1   
    24    11    12 1   
    25    11    13 1   
    26    11    47 1   
    27    12    48 1   
    28    12    49 1   
    29    12    50 1   
    30    13    14 2   
    31    13    15 1   
    32    15    16 1   
    33    15    20 1   
    34    16    17 1   
    35    16    51 1   
    36    16    52 1   
    37    17    18 1   
    38    17    53 1   
    39    17    54 1   
    40    18    19 1   
    41    19    20 1   
    42    19    55 1   
    43    19    56 1   
    44    20    57 1   
    45    20    58 1   
    46    21    22 2   
    47    23    24 2   
    48    23    25 2   
    49    23    26 1   
    50    26    27 ar  
    51    26    36 ar  
    52    27    28 ar  
    53    27    59 1   
    54    28    29 ar  
    55    28    60 1   
    56    29    30 ar  
    57    29    35 ar  
    58    30    31 ar  
    59    30    61 1   
    60    31    32 1   
    61    31    33 ar  
    62    33    34 ar  
    63    33    62 1   
    64    34    35 ar  
    65    34    63 1   
    66    35    36 ar  
    67    36    64 1   
@<TRIPOS>SUBSTRUCTURE
     1 4O4         1 TEMP              0 ****  ****    0 ROOT
