@<TRIPOS>MOLECULE
4O4
   64    67     1     0     0
SMALL
abcg2


@<TRIPOS>ATOM
      1 C1           3.2720     8.8510    16.9400 c3         1 4O4      -0.077100
      2 C2           4.4760     8.1730    17.5760 c3         1 4O4      -0.180400
      3 C3           4.4840     8.2040    19.0820 c          1 4O4       0.562100
      4 O4           3.5390     8.5660    19.7490 o          1 4O4      -0.504100
      5 C5           5.7950     7.7530    19.7150 c3         1 4O4       0.116800
      6 N6           5.6970     7.5040    21.1440 n3         1 4O4      -0.749500
      7 C7           5.4190     6.1410    21.5770 c5         1 4O4       0.200700
      8 C8           4.1590     5.5450    21.0100 c2         1 4O4      -0.283200
      9 C9           4.4680     4.4040    20.3950 c2         1 4O4      -0.061400
     10 N10          5.8510     4.1250    20.4680 n          1 4O4      -0.322000
     11 C11          6.5990     3.1470    19.6970 c3         1 4O4       0.050700
     12 C12          5.7470     1.9490    19.2860 c3         1 4O4      -0.098100
     13 C13          7.1850     3.8500    18.4550 c          1 4O4       0.590100
     14 O14          6.5890     4.8150    17.9730 o          1 4O4      -0.621100
     15 N15          8.3220     3.3580    17.9260 n          1 4O4      -0.405800
     16 C16          9.1340     2.2580    18.4460 c6         1 4O4       0.062500
     17 C17         10.5350     2.7670    18.7590 c6         1 4O4       0.131100
     18 O18         11.1330     3.3720    17.6160 os         1 4O4      -0.451000
     19 C19         10.3450     4.4570    17.1320 c6         1 4O4       0.131100
     20 C20          8.9390     4.0030    16.7660 c6         1 4O4       0.062500
     21 C21          6.5030     5.1480    21.0970 c          1 4O4       0.523000
     22 O22          7.7110     5.2600    21.2060 o          1 4O4      -0.524000
     23 S23          6.2080     8.6200    22.2290 sy         1 4O4       1.225600
     24 O24          5.4750     8.3890    23.4500 o          1 4O4      -0.540000
     25 O25          6.1260     9.9000    21.5680 o          1 4O4      -0.540000
     26 C26          7.9140     8.2760    22.5450 ca         1 4O4      -0.296500
     27 C27          8.8800     8.7030    21.6040 ca         1 4O4      -0.026000
     28 C28         10.1920     8.3590    21.7830 ca         1 4O4      -0.107000
     29 C29         10.5930     7.5780    22.8960 ca         1 4O4       0.014000
     30 C30         11.9410     7.1970    23.0880 ca         1 4O4      -0.104000
     31 C31         12.2770     6.4360    24.1750 ca         1 4O4       0.142000
     32 CL1         13.9420     5.9540    24.4120 cl         1 4O4      -0.207000
     33 C33         11.3210     6.0200    25.1240 ca         1 4O4      -0.111000
     34 C34         10.0110     6.3850    24.9560 ca         1 4O4      -0.072000
     35 C35          9.6110     7.1660    23.8450 ca         1 4O4      -0.061000
     36 C36          8.2620     7.5340    23.6430 ca         1 4O4       0.033000
     37 H1           3.3270     8.7770    15.8530 hc         1 4O4       0.041033
     38 H2           2.3420     8.3870    17.2680 hc         1 4O4       0.041033
     39 H3           3.2320     9.9090    17.2080 hc         1 4O4       0.041033
     40 H4           4.5280     7.1140    17.2940 hc         1 4O4       0.064700
     41 H5           5.4170     8.6080    17.2240 hc         1 4O4       0.064700
     42 H6           6.1500     6.8550    19.2040 h1         1 4O4       0.082700
     43 H7           6.5300     8.5320    19.5090 h1         1 4O4       0.082700
     44 H8           5.4020     6.1260    22.6690 h1         1 4O4       0.110700
     45 H9           3.1760     5.9650    21.1320 ha         1 4O4       0.233000
     46 H10          3.8130     3.7030    19.9060 h4         1 4O4       0.217000
     47 H11          7.4020     2.8140    20.3500 h1         1 4O4       0.083700
     48 H12          5.2710     1.5060    20.1610 hc         1 4O4       0.054033
     49 H13          4.9780     2.2370    18.5690 hc         1 4O4       0.054033
     50 H14          6.3780     1.1950    18.8180 hc         1 4O4       0.054033
     51 H15          9.1870     1.4790    17.6800 h1         1 4O4       0.065200
     52 H16          8.6970     1.8200    19.3370 h1         1 4O4       0.065200
     53 H17         11.1790     1.9390    19.0520 h1         1 4O4       0.060700
     54 H18         10.4860     3.4930    19.5800 h1         1 4O4       0.060700
     55 H19         10.2890     5.2420    17.8970 h1         1 4O4       0.060700
     56 H20         10.8560     4.8500    16.2530 h1         1 4O4       0.060700
     57 H21          8.3290     4.8490    16.4660 h1         1 4O4       0.065200
     58 H22          8.9820     3.2810    15.9450 h1         1 4O4       0.065200
     59 H23          8.5820     9.3020    20.7560 ha         1 4O4       0.128000
     60 H24         10.9410     8.6790    21.0710 ha         1 4O4       0.118000
     61 H25         12.6920     7.5050    22.3730 ha         1 4O4       0.133000
     62 H26         11.6290     5.4200    25.9690 ha         1 4O4       0.132000
     63 H27          9.2640     6.0730    25.6750 ha         1 4O4       0.122000
     64 H28          7.5110     7.2120    24.3510 ha         1 4O4       0.135000
@<TRIPOS>BOND
     1     1     2 1   
     2     1    37 1   
     3     1    38 1   
     4     1    39 1   
     5     2     3 1   
     6     2    40 1   
     7     2    41 1   
     8     3     4 2   
     9     3     5 1   
    10     5     6 1   
    11     5    42 1   
    12     5    43 1   
    13     6     7 1   
    14     6    23 1   
    15     7     8 1   
    16     7    21 1   
    17     7    44 1   
    18     8     9 2   
    19     8    45 1   
    20     9    10 1   
    21     9    46 1   
    22    10    11 1   
    23    10    21 1   
    24    11    12 1   
    25    11    13 1   
    26    11    47 1   
    27    12    48 1   
    28    12    49 1   
    29    12    50 1   
    30    13    14 2   
    31    13    15 1   
    32    15    16 1   
    33    15    20 1   
    34    16    17 1   
    35    16    51 1   
    36    16    52 1   
    37    17    18 1   
    38    17    53 1   
    39    17    54 1   
    40    18    19 1   
    41    19    20 1   
    42    19    55 1   
    43    19    56 1   
    44    20    57 1   
    45    20    58 1   
    46    21    22 2   
    47    23    24 2   
    48    23    25 2   
    49    23    26 1   
    50    26    27 ar  
    51    26    36 ar  
    52    27    28 ar  
    53    27    59 1   
    54    28    29 ar  
    55    28    60 1   
    56    29    30 ar  
    57    29    35 ar  
    58    30    31 ar  
    59    30    61 1   
    60    31    32 1   
    61    31    33 ar  
    62    33    34 ar  
    63    33    62 1   
    64    34    35 ar  
    65    34    63 1   
    66    35    36 ar  
    67    36    64 1   
@<TRIPOS>SUBSTRUCTURE
     1 4O4         1 TEMP              0 ****  ****    0 ROOT
