@<TRIPOS>MOLECULE
4O5
   44    46     1     0     0
SMALL
No Charge or Current Charge


@<TRIPOS>ATOM
      1 C1           7.3320     3.9150    -0.1410 c3         1 4O5       0.093300
      2 N2           6.3520     2.8490     0.0800 ns         1 4O5      -0.500900
      3 C3           5.6650     2.2020    -0.9250 c          1 4O5       0.608700
      4 O4           5.8460     2.4970    -2.1000 o          1 4O5      -0.595100
      5 C5           4.6880     1.1210    -0.5030 ca         1 4O5      -0.123600
      6 C6           3.9510     0.4300    -1.4910 ca         1 4O5      -0.064000
      7 C7           3.0370    -0.5780    -1.1400 ca         1 4O5      -0.110000
      8 C8           2.8280    -0.9160     0.2100 ca         1 4O5      -0.068000
      9 C9           3.5700    -0.2410     1.2030 ca         1 4O5       0.178000
     10 F10          3.4500    -0.5840     2.5060 f          1 4O5      -0.158000
     11 C11          4.4870     0.7650     0.8540 ca         1 4O5      -0.125000
     12 N12          1.8840    -1.9510     0.5380 n          1 4O5      -0.153600
     13 C13          1.8140    -3.1940    -0.0970 c2         1 4O5      -0.065400
     14 C14          0.8200    -3.9600     0.3490 c2         1 4O5      -0.287200
     15 C15          0.0760    -3.2020     1.4240 c5         1 4O5       0.193700
     16 N16         -1.3140    -3.1850     0.8760 n7         1 4O5      -0.891300
     17 S17         -2.5450    -2.4550     1.7210 sy         1 4O5       1.176200
     18 O18         -3.7490    -3.2300     1.4200 o          1 4O5      -0.537500
     19 O19         -2.0560    -2.2500     3.0850 o          1 4O5      -0.537500
     20 C20         -2.5560    -0.9110     0.8660 ce         1 4O5      -0.467100
     21 C21         -3.2820    -0.7390    -0.2740 cf         1 4O5       0.050800
     22 C22         -3.3560     0.4890    -1.0630 cd         1 4O5      -0.238800
     23 C23         -4.0960     0.6740    -2.2060 cc         1 4O5      -0.086000
     24 C24         -3.9720     1.9710    -2.7660 cc         1 4O5      -0.133000
     25 C25         -3.1370     2.7920    -2.0580 cd         1 4O5      -0.027000
     26 Cl26        -2.7620     4.4360    -2.4630 cl         1 4O5      -0.133000
     27 S27         -2.4590     1.9700    -0.6400 ss         1 4O5       0.308000
     28 C28          0.8390    -1.8130     1.4840 c          1 4O5       0.533000
     29 O29          0.5830    -0.8030     2.1320 o          1 4O5      -0.501000
     30 H1           7.7290     4.2550     0.8230 h1         1 4O5       0.043367
     31 H2           8.1570     3.5370    -0.7590 h1         1 4O5       0.043367
     32 H3           6.8510     4.7590    -0.6520 h1         1 4O5       0.043367
     33 H4           6.1570     2.5620     1.0310 hn         1 4O5       0.319500
     34 H5           4.0830     0.6750    -2.5440 ha         1 4O5       0.146000
     35 H6           2.4780    -1.0860    -1.9230 ha         1 4O5       0.128000
     36 H7           5.0380     1.2490     1.6550 ha         1 4O5       0.136000
     37 H8           2.5540    -3.4330    -0.8660 h4         1 4O5       0.223000
     38 H9           0.5920    -4.9690    -0.0000 ha         1 4O5       0.226000
     39 H10          0.1520    -3.6900     2.4070 h1         1 4O5       0.127700
     40 H11         -1.3230    -2.6280     0.0240 hn         1 4O5       0.496000
     41 H12         -1.9420    -0.1560     1.3540 h4         1 4O5       0.237000
     42 H13         -3.8730    -1.5750    -0.6620 ha         1 4O5       0.201000
     43 H14         -4.7230    -0.0900    -2.6570 ha         1 4O5       0.141000
     44 H15         -4.4950     2.2680    -3.6700 ha         1 4O5       0.150000
@<TRIPOS>BOND
     1     1     2 1   
     2     1    30 1   
     3     1    31 1   
     4     1    32 1   
     5     2     3 1   
     6     2    33 1   
     7     3     4 2   
     8     3     5 1   
     9     5     6 ar  
    10     5    11 ar  
    11     6     7 ar  
    12     6    34 1   
    13     7     8 ar  
    14     7    35 1   
    15     8     9 ar  
    16     8    12 1   
    17     9    10 1   
    18     9    11 ar  
    19    11    36 1   
    20    12    13 1   
    21    12    28 1   
    22    13    14 2   
    23    13    37 1   
    24    14    15 1   
    25    14    38 1   
    26    15    16 1   
    27    15    28 1   
    28    15    39 1   
    29    16    17 1   
    30    16    40 1   
    31    17    18 2   
    32    17    19 2   
    33    17    20 1   
    34    20    21 2   
    35    20    41 1   
    36    21    22 1   
    37    21    42 1   
    38    22    23 2   
    39    22    27 1   
    40    23    24 1   
    41    23    43 1   
    42    24    25 2   
    43    24    44 1   
    44    25    26 1   
    45    25    27 1   
    46    28    29 2   
@<TRIPOS>SUBSTRUCTURE
     1 4O5         1 TEMP              0 ****  ****    0 ROOT
