@<TRIPOS>MOLECULE
4O5
   44    46     1     0     0
SMALL
bcc


@<TRIPOS>ATOM
      1 C1           7.1690     3.9720    -0.6220 c3         1 4O5       0.093300
      2 N2           6.1790     2.9640    -0.3190 ns         1 4O5      -0.567900
      3 C3           6.2970     1.7020    -0.7480 c          1 4O5       0.675700
      4 O4           7.2360     1.3190    -1.4330 o          1 4O5      -0.595100
      5 C5           5.2040     0.7600    -0.3490 ca         1 4O5      -0.123600
      6 C6           4.9560    -0.3450    -1.1580 ca         1 4O5      -0.082000
      7 C7           3.9510    -1.2390    -0.8350 ca         1 4O5      -0.128000
      8 C8           3.2000    -1.0690     0.3220 ca         1 4O5       0.024600
      9 C9           3.4840     0.0190     1.1370 ca         1 4O5       0.142900
     10 F10          2.8100     0.1630     2.2800 f          1 4O5      -0.122900
     11 C11          4.4600     0.9370     0.8140 ca         1 4O5      -0.143000
     12 N12          2.1950    -1.9790     0.6760 n          1 4O5      -0.313200
     13 C13          2.3460    -3.3800     0.6610 c2         1 4O5      -0.015400
     14 C14          1.1910    -3.9990     0.8790 c2         1 4O5      -0.237200
     15 C15          0.1280    -2.9650     1.0980 c5         1 4O5       0.193700
     16 N16         -1.0370    -3.1500     0.2710 n7         1 4O5      -0.836100
     17 S17         -2.5610    -2.7440     0.7370 sy         1 4O5       1.317800
     18 O18         -3.4600    -3.4970    -0.1200 o          1 4O5      -0.608300
     19 O19         -2.6050    -2.9220     2.1800 o          1 4O5      -0.608300
     20 C20         -2.7750    -1.0380     0.4080 ce         1 4O5      -0.417100
     21 C21         -3.6480    -0.6070    -0.5050 cf         1 4O5       0.100800
     22 C22         -3.8960     0.7720    -0.8390 cd         1 4O5      -0.093900
     23 C23         -4.7980     1.2250    -1.7650 cc         1 4O5      -0.104000
     24 C24         -4.8280     2.6330    -1.8850 cc         1 4O5      -0.151000
     25 C25         -3.9390     3.2220    -1.0390 cd         1 4O5       0.026300
     26 CL26        -3.6510     4.8910    -0.8590 cl         1 4O5      -0.041400
     27 S27         -3.0600     2.0910    -0.0930 ss         1 4O5       0.018200
     28 C28          0.8740    -1.6480     0.8450 c          1 4O5       0.675500
     29 O29          0.4040    -0.5390     0.7780 o          1 4O5      -0.576500
     30 H1           6.8720     4.8980    -0.1390 h1         1 4O5       0.043367
     31 H2           8.1510     3.6870    -0.2450 h1         1 4O5       0.043367
     32 H3           7.2510     4.1520    -1.6940 h1         1 4O5       0.043367
     33 H4           5.3320     3.2610     0.1350 hn         1 4O5       0.319500
     34 H5           5.5350    -0.4970    -2.0590 ha         1 4O5       0.164000
     35 H6           3.7440    -2.0760    -1.4880 ha         1 4O5       0.146000
     36 H7           4.6480     1.7530     1.5000 ha         1 4O5       0.154000
     37 H8           3.3290    -3.7990     0.5140 h4         1 4O5       0.173000
     38 H9           1.0360    -5.0620     0.9510 ha         1 4O5       0.176000
     39 H10         -0.1840    -2.9700     2.1470 h1         1 4O5       0.127700
     40 H11         -0.8900    -3.1480    -0.7320 hn         1 4O5       0.440800
     41 H12         -2.1410    -0.3920     1.0020 h4         1 4O5       0.187000
     42 H13         -4.2420    -1.3210    -1.0660 ha         1 4O5       0.151000
     43 H14         -5.4240     0.5600    -2.3440 ha         1 4O5       0.159000
     44 H15         -5.4710     3.1790    -2.5590 ha         1 4O5       0.168000
@<TRIPOS>BOND
     1     1     2 1   
     2     1    30 1   
     3     1    31 1   
     4     1    32 1   
     5     2     3 1   
     6     2    33 1   
     7     3     4 2   
     8     3     5 1   
     9     5     6 ar  
    10     5    11 ar  
    11     6     7 ar  
    12     6    34 1   
    13     7     8 ar  
    14     7    35 1   
    15     8     9 ar  
    16     8    12 1   
    17     9    10 1   
    18     9    11 ar  
    19    11    36 1   
    20    12    13 1   
    21    12    28 1   
    22    13    14 2   
    23    13    37 1   
    24    14    15 1   
    25    14    38 1   
    26    15    16 1   
    27    15    28 1   
    28    15    39 1   
    29    16    17 1   
    30    16    40 1   
    31    17    18 2   
    32    17    19 2   
    33    17    20 1   
    34    20    21 2   
    35    20    41 1   
    36    21    22 1   
    37    21    42 1   
    38    22    23 2   
    39    22    27 1   
    40    23    24 1   
    41    23    43 1   
    42    24    25 2   
    43    24    44 1   
    44    25    26 1   
    45    25    27 1   
    46    28    29 2   
@<TRIPOS>SUBSTRUCTURE
     1 4O5         1 TEMP              0 ****  ****    0 ROOT
