@<TRIPOS>MOLECULE
4O6
   53    55     1     0     0
SMALL
No Charge or Current Charge


@<TRIPOS>ATOM
      1 C01          5.6300     1.6810    19.3310 c3         1 4O6      -0.099100
      2 C05          6.7620     2.6550    19.7510 c3         1 4O6       0.048700
      3 C07          7.3830     3.3470    18.4920 c          1 4O6       0.590100
      4 O08          7.1880     4.5380    18.2630 o          1 4O6      -0.603100
      5 N09          8.0920     2.5560    17.5510 n          1 4O6      -0.413800
      6 C10          8.8690     1.3470    17.9910 c6         1 4O6       0.063000
      7 C13          9.3980     0.4610    16.8340 c6         1 4O6       0.135100
      8 O16         10.0380     1.2670    15.8290 os         1 4O6      -0.450000
      9 C17          9.1310     2.2070    15.2270 c6         1 4O6       0.135100
     10 C20          8.5940     3.1970    16.2910 c6         1 4O6       0.063000
     11 N23          6.3280     3.6190    20.8070 n          1 4O6      -0.394800
     12 C24          4.9300     4.0250    21.0740 c5         1 4O6       0.104000
     13 C27          5.1110     5.4280    21.7260 c5         1 4O6      -0.092400
     14 C30          6.4750     5.2900    22.4580 c5         1 4O6       0.145500
     15 N32          7.0460     6.6640    22.6490 n7         1 4O6      -0.868300
     16 S34          6.4250     7.6940    23.7950 sy         1 4O6       1.182200
     17 O35          6.0390     6.8660    24.9380 o          1 4O6      -0.544000
     18 O36          5.5040     8.5890    23.0930 o          1 4O6      -0.544000
     19 C37          7.9180     8.5640    24.1710 ce         1 4O6      -0.467100
     20 C39          8.7480     8.1550    25.1770 cf         1 4O6       0.020800
     21 C41         10.0180     8.7680    25.6160 ca         1 4O6      -0.099800
     22 C42         10.7360     8.1950    26.6880 ca         1 4O6      -0.064500
     23 C44         11.9470     8.7640    27.1200 ca         1 4O6      -0.112000
     24 C46         12.4510     9.9090    26.4850 ca         1 4O6       0.143000
     25 Cl1         13.9660    10.6200    27.0260 cl         1 4O6      -0.200000
     26 C48         11.7460    10.4870    25.4180 ca         1 4O6      -0.112000
     27 C50         10.5340     9.9200    24.9840 ca         1 4O6      -0.064500
     28 C52          7.2850     4.3580    21.5120 c          1 4O6       0.544000
     29 O53          8.5000     4.2550    21.3780 o          1 4O6      -0.564000
     30 H1           5.2140     1.1720    20.2090 hc         1 4O6       0.051033
     31 H2           4.8190     2.2180    18.8240 hc         1 4O6       0.051033
     32 H3           5.9990     0.9130    18.6420 hc         1 4O6       0.051033
     33 H4           7.5610     2.0510    20.1980 h1         1 4O6       0.087700
     34 H5           8.2550     0.7080    18.6400 h1         1 4O6       0.066450
     35 H6           9.7250     1.6850    18.5920 h1         1 4O6       0.066450
     36 H7           8.5650    -0.0930    16.3760 h1         1 4O6       0.055700
     37 H8          10.1180    -0.2730    17.2230 h1         1 4O6       0.055700
     38 H9           9.6530     2.7580    14.4320 h1         1 4O6       0.055700
     39 H10          8.2940     1.6600    14.7680 h1         1 4O6       0.055700
     40 H11          9.3980     3.8990    16.5530 h1         1 4O6       0.066450
     41 H12          7.7870     3.7890    15.8360 h1         1 4O6       0.066450
     42 H13          4.3250     4.0810    20.1590 h1         1 4O6       0.059700
     43 H14          4.4520     3.3190    21.7660 h1         1 4O6       0.059700
     44 H15          5.1600     6.1990    20.9480 hc         1 4O6       0.080700
     45 H16          4.2850     5.6900    22.3960 hc         1 4O6       0.080700
     46 H17          6.3640     4.7490    23.4090 h1         1 4O6       0.072700
     47 H18          8.0190     6.6170    22.9470 hn         1 4O6       0.503000
     48 H19          8.0670     9.4290    23.5280 h4         1 4O6       0.222000
     49 H20          8.4660     7.2670    25.7510 ha         1 4O6       0.193000
     50 H21         10.3570     7.3070    27.1910 ha         1 4O6       0.125000
     51 H22         12.4940     8.3180    27.9460 ha         1 4O6       0.135000
     52 H23         12.1380    11.3740    24.9270 ha         1 4O6       0.135000
     53 H24         10.0040    10.3830    24.1560 ha         1 4O6       0.125000
@<TRIPOS>BOND
     1     1     2 1   
     2     1    30 1   
     3     1    31 1   
     4     1    32 1   
     5     2     3 1   
     6     2    11 1   
     7     2    33 1   
     8     3     4 2   
     9     3     5 1   
    10     5     6 1   
    11     5    10 1   
    12     6     7 1   
    13     6    34 1   
    14     6    35 1   
    15     7     8 1   
    16     7    36 1   
    17     7    37 1   
    18     8     9 1   
    19     9    10 1   
    20     9    38 1   
    21     9    39 1   
    22    10    40 1   
    23    10    41 1   
    24    11    12 1   
    25    11    28 1   
    26    12    13 1   
    27    12    42 1   
    28    12    43 1   
    29    13    14 1   
    30    13    44 1   
    31    13    45 1   
    32    14    15 1   
    33    14    28 1   
    34    14    46 1   
    35    15    16 1   
    36    15    47 1   
    37    16    17 2   
    38    16    18 2   
    39    16    19 1   
    40    19    20 2   
    41    19    48 1   
    42    20    21 1   
    43    20    49 1   
    44    21    22 ar  
    45    21    27 ar  
    46    22    23 ar  
    47    22    50 1   
    48    23    24 ar  
    49    23    51 1   
    50    24    25 1   
    51    24    26 ar  
    52    26    27 ar  
    53    26    52 1   
    54    27    53 1   
    55    28    29 2   
@<TRIPOS>SUBSTRUCTURE
     1 4O6         1 TEMP              0 ****  ****    0 ROOT
