@<TRIPOS>MOLECULE
4O6
   53    55     1     0     0
SMALL
abcg2


@<TRIPOS>ATOM
      1 C01          7.5410     1.8580    20.6080 c3         1 4O6      -0.099100
      2 C05          7.7020     3.2910    20.0970 c3         1 4O6       0.048700
      3 C07          7.2910     3.4050    18.6150 c          1 4O6       0.590100
      4 O08          6.1760     3.8370    18.3180 o          1 4O6      -0.603100
      5 N09          8.1780     2.9890    17.6860 n          1 4O6      -0.413800
      6 C10          9.5480     2.5330    17.9200 c6         1 4O6       0.063000
      7 C13          9.7690     1.1980    17.2230 c6         1 4O6       0.135100
      8 O16          9.4690     1.2840    15.8330 os         1 4O6      -0.450000
      9 C17          8.1150     1.6840    15.6260 c6         1 4O6       0.135100
     10 C20          7.8340     3.0340    16.2650 c6         1 4O6       0.063000
     11 N23          6.9230     4.2260    20.8870 n          1 4O6      -0.394800
     12 C24          5.5790     3.9520    21.4070 c5         1 4O6       0.104000
     13 C27          5.0260     5.3520    21.6920 c5         1 4O6      -0.092400
     14 C30          6.2840     6.1690    21.9850 c5         1 4O6       0.145500
     15 N32          6.1930     7.5860    21.6590 n7         1 4O6      -0.868300
     16 S34          6.2630     8.6970    22.8600 sy         1 4O6       1.182200
     17 O35          5.3290     8.2770    23.8770 o          1 4O6      -0.544000
     18 O36          6.0930     9.9780    22.2130 o          1 4O6      -0.544000
     19 C37          7.8880     8.6320    23.5010 ce         1 4O6      -0.467100
     20 C39          8.1480     8.1980    24.7360 cf         1 4O6       0.020800
     21 C41          9.4660     8.0960    25.3560 ca         1 4O6      -0.099800
     22 C42          9.5560     7.5910    26.6590 ca         1 4O6      -0.064500
     23 C44         10.7800     7.4660    27.3010 ca         1 4O6      -0.112000
     24 C46         11.9310     7.8500    26.6280 ca         1 4O6       0.143000
     25 CL1         13.4810     7.6980    27.4200 cl         1 4O6      -0.200000
     26 C48         11.8760     8.3570    25.3330 ca         1 4O6      -0.112000
     27 C50         10.6480     8.4780    24.7060 ca         1 4O6      -0.064500
     28 C52          7.3540     5.4730    21.1400 c          1 4O6       0.544000
     29 O53          8.4070     5.9810    20.7670 o          1 4O6      -0.564000
     30 H1           7.8080     1.8090    21.6640 hc         1 4O6       0.051033
     31 H2           6.5140     1.5130    20.4890 hc         1 4O6       0.051033
     32 H3           8.1900     1.1800    20.0570 hc         1 4O6       0.051033
     33 H4           8.7370     3.6090    20.2090 h1         1 4O6       0.087700
     34 H5           9.7560     2.4280    18.9790 h1         1 4O6       0.066450
     35 H6          10.2370     3.2780    17.5090 h1         1 4O6       0.066450
     36 H7           9.1420     0.4290    17.6910 h1         1 4O6       0.055700
     37 H8          10.8150     0.9040    17.3040 h1         1 4O6       0.055700
     38 H9           7.9650     1.7380    14.5480 h1         1 4O6       0.055700
     39 H10          7.4400     0.9280    16.0450 h1         1 4O6       0.055700
     40 H11          8.4370     3.8080    15.7800 h1         1 4O6       0.066450
     41 H12          6.7840     3.2940    16.1650 h1         1 4O6       0.066450
     42 H13          4.9920     3.4130    20.6690 h1         1 4O6       0.059700
     43 H14          5.6440     3.3510    22.3180 h1         1 4O6       0.059700
     44 H15          4.5480     5.7530    20.7980 hc         1 4O6       0.080700
     45 H16          4.3110     5.3660    22.5120 hc         1 4O6       0.080700
     46 H17          6.5770     6.0510    23.0320 h1         1 4O6       0.072700
     47 H18          6.7310     7.8700    20.8460 hn         1 4O6       0.503000
     48 H19          8.6340     8.9650    22.7910 h4         1 4O6       0.222000
     49 H20          7.3120     7.8900    25.3550 ha         1 4O6       0.193000
     50 H21          8.6530     7.2940    27.1780 ha         1 4O6       0.125000
     51 H22         10.8390     7.0750    28.3070 ha         1 4O6       0.135000
     52 H23         12.7840     8.6550    24.8270 ha         1 4O6       0.135000
     53 H24         10.6150     8.8770    23.7010 ha         1 4O6       0.125000
@<TRIPOS>BOND
     1     1     2 1   
     2     1    30 1   
     3     1    31 1   
     4     1    32 1   
     5     2     3 1   
     6     2    11 1   
     7     2    33 1   
     8     3     4 2   
     9     3     5 1   
    10     5     6 1   
    11     5    10 1   
    12     6     7 1   
    13     6    34 1   
    14     6    35 1   
    15     7     8 1   
    16     7    36 1   
    17     7    37 1   
    18     8     9 1   
    19     9    10 1   
    20     9    38 1   
    21     9    39 1   
    22    10    40 1   
    23    10    41 1   
    24    11    12 1   
    25    11    28 1   
    26    12    13 1   
    27    12    42 1   
    28    12    43 1   
    29    13    14 1   
    30    13    44 1   
    31    13    45 1   
    32    14    15 1   
    33    14    28 1   
    34    14    46 1   
    35    15    16 1   
    36    15    47 1   
    37    16    17 2   
    38    16    18 2   
    39    16    19 1   
    40    19    20 2   
    41    19    48 1   
    42    20    21 1   
    43    20    49 1   
    44    21    22 ar  
    45    21    27 ar  
    46    22    23 ar  
    47    22    50 1   
    48    23    24 ar  
    49    23    51 1   
    50    24    25 1   
    51    24    26 ar  
    52    26    27 ar  
    53    26    52 1   
    54    27    53 1   
    55    28    29 2   
@<TRIPOS>SUBSTRUCTURE
     1 4O6         1 TEMP              0 ****  ****    0 ROOT
