@<TRIPOS>MOLECULE
4O7
   65    72     1     0     0
SMALL
abcg2


@<TRIPOS>ATOM
      1 O4           0.8880     2.1360    -1.4680 os         1 4O7      -0.449000
      2 C25         -0.2410     2.5660    -0.7670 c6         1 4O7       0.337300
      3 C24          0.0740     3.2100     0.5730 c6         1 4O7      -0.125400
      4 C23          1.0420     2.3900     1.4120 c6         1 4O7       0.162500
      5 C22          2.2810     2.1690     0.5450 c6         1 4O7       0.129300
      6 C21          1.9810     1.5220    -0.8290 c6         1 4O7       0.360000
      7 C26          3.1480     1.7860    -1.7800 c3         1 4O7      -0.098100
      8 N2           1.6990     0.0830    -0.7120 na         1 4O7      -0.096700
      9 C18          0.4350    -0.4730    -0.6090 cc         1 4O7       0.043900
     10 C19         -0.8640     0.1440    -0.5880 cc         1 4O7       0.049900
     11 C6          -2.0130    -0.6050    -0.4980 cd         1 4O7      -0.126400
     12 C7          -2.0420    -2.0890    -0.3460 c5         1 4O7      -0.010500
     13 C10         -0.6330    -2.7520    -0.3060 c5         1 4O7      -0.018500
     14 C11          0.5170    -1.8340    -0.5250 cd         1 4O7      -0.125400
     15 C12          1.8950    -2.1660    -0.5630 ca         1 4O7      -0.089800
     16 C17          2.6170    -0.9520    -0.6620 ca         1 4O7      -0.009200
     17 C16          4.0140    -0.9750    -0.6760 ca         1 4O7      -0.116000
     18 C15          4.6560    -2.2000    -0.6300 ca         1 4O7      -0.105000
     19 C14          3.9460    -3.4050    -0.5550 ca         1 4O7      -0.138000
     20 C13          2.5680    -3.3930    -0.5130 ca         1 4O7      -0.069000
     21 C9          -0.5900    -3.4090     1.1000 c5         1 4O7       0.139800
     22 N1          -1.9620    -3.7100     1.4530 n7         1 4O7      -0.864400
     23 C8          -2.6930    -2.5400     0.9930 c5         1 4O7       0.372500
     24 O5          -4.0500    -2.8000     0.8170 oh         1 4O7      -0.660000
     25 C5          -3.1030     0.3160    -0.5400 ca         1 4O7      -0.078800
     26 C20         -2.5400     1.6100    -0.6480 ca         1 4O7      -0.041200
     27 C1          -3.3230     2.7600    -0.7140 ca         1 4O7      -0.140000
     28 C2          -4.6970     2.5990    -0.6830 ca         1 4O7      -0.094000
     29 C3          -5.2780     1.3260    -0.5840 ca         1 4O7      -0.146000
     30 C4          -4.4970     0.1880    -0.5100 ca         1 4O7      -0.057000
     31 N3          -1.1790     1.4720    -0.6790 na         1 4O7      -0.100700
     32 O6           3.2440     1.3680     1.1680 os         1 4O7      -0.437000
     33 C27          4.0520     2.0500     2.1000 c3         1 4O7       0.139900
     34 N4           0.4880     1.1260     1.8300 n7         1 4O7      -0.869400
     35 C28         -0.6260     1.2100     2.7430 c3         1 4O7       0.152100
     36 H1          -0.7050     3.3190    -1.4090 h2         1 4O7       0.089700
     37 H2           0.5240     4.1870     0.3800 hc         1 4O7       0.065200
     38 H3          -0.8610     3.4090     1.1000 hc         1 4O7       0.065200
     39 H4           1.3380     3.0210     2.2700 h1         1 4O7       0.025700
     40 H5           2.6960     3.1660     0.3270 h1         1 4O7       0.046700
     41 H6           4.1150     1.6510    -1.3050 hc         1 4O7       0.061367
     42 H7           3.1000     1.1480    -2.6620 hc         1 4O7       0.061367
     43 H8           3.0950     2.8240    -2.1020 hc         1 4O7       0.061367
     44 H9          -2.6290    -2.5330    -1.1570 hc         1 4O7       0.074700
     45 H10         -0.6040    -3.5570    -1.0470 hc         1 4O7       0.058700
     46 H11          4.6120    -0.0800    -0.6980 ha         1 4O7       0.112000
     47 H12          5.7380    -2.2190    -0.6400 ha         1 4O7       0.105000
     48 H13          4.4840    -4.3440    -0.5190 ha         1 4O7       0.109000
     49 H14          2.0100    -4.3190    -0.4380 ha         1 4O7       0.111000
     50 H15          0.0330    -4.3020     1.1320 h1         1 4O7       0.060200
     51 H16         -0.1760    -2.6950     1.8190 h1         1 4O7       0.060200
     52 H17         -2.2720    -4.5120     0.9100 hn         1 4O7       0.407000
     53 H19         -2.5310    -1.7440     1.7340 h2         1 4O7       0.057700
     54 H20         -4.4670    -2.8650     1.6810 ho         1 4O7       0.455000
     55 H21         -2.8870     3.7480    -0.7860 ha         1 4O7       0.106000
     56 H22         -5.3350     3.4720    -0.7340 ha         1 4O7       0.107000
     57 H23         -6.3560     1.2370    -0.5620 ha         1 4O7       0.110000
     58 H24         -4.9550    -0.7880    -0.4210 ha         1 4O7       0.130000
     59 H25          3.4820     2.4310     2.9530 h1         1 4O7       0.034700
     60 H26          4.7900     1.3410     2.4720 h1         1 4O7       0.034700
     61 H27          4.5800     2.8920     1.6380 h1         1 4O7       0.034700
     62 H28          1.2200     0.5590     2.2360 hn         1 4O7       0.438000
     63 H30         -0.4430     1.8480     3.6200 h1         1 4O7       0.032033
     64 H31         -1.5150     1.5920     2.2380 h1         1 4O7       0.032033
     65 H32         -0.8710     0.2090     3.0980 h1         1 4O7       0.032033
@<TRIPOS>BOND
     1     1     2 1   
     2     1     6 1   
     3     2     3 1   
     4     2    31 1   
     5     2    36 1   
     6     3     4 1   
     7     3    37 1   
     8     3    38 1   
     9     4     5 1   
    10     4    34 1   
    11     4    39 1   
    12     5     6 1   
    13     5    32 1   
    14     5    40 1   
    15     6     7 1   
    16     6     8 1   
    17     7    41 1   
    18     7    42 1   
    19     7    43 1   
    20     8     9 1   
    21     8    16 1   
    22     9    10 1   
    23     9    14 2   
    24    10    11 2   
    25    10    31 1   
    26    11    12 1   
    27    11    25 1   
    28    12    13 1   
    29    12    23 1   
    30    12    44 1   
    31    13    14 1   
    32    13    21 1   
    33    13    45 1   
    34    14    15 1   
    35    15    16 ar  
    36    15    20 ar  
    37    16    17 ar  
    38    17    18 ar  
    39    17    46 1   
    40    18    19 ar  
    41    18    47 1   
    42    19    20 ar  
    43    19    48 1   
    44    20    49 1   
    45    21    22 1   
    46    21    50 1   
    47    21    51 1   
    48    22    23 1   
    49    22    52 1   
    50    23    24 1   
    51    23    53 1   
    52    24    54 1   
    53    25    26 ar  
    54    25    30 ar  
    55    26    27 ar  
    56    26    31 1   
    57    27    28 ar  
    58    27    55 1   
    59    28    29 ar  
    60    28    56 1   
    61    29    30 ar  
    62    29    57 1   
    63    30    58 1   
    64    32    33 1   
    65    33    59 1   
    66    33    60 1   
    67    33    61 1   
    68    34    35 1   
    69    34    62 1   
    70    35    63 1   
    71    35    64 1   
    72    35    65 1   
@<TRIPOS>SUBSTRUCTURE
     1 4O7         1 TEMP              0 ****  ****    0 ROOT
