@<TRIPOS>MOLECULE
4O7
   65    72     1     0     0
SMALL
No Charge or Current Charge


@<TRIPOS>ATOM
      1 O4           0.8960     2.2630    -1.5610 os         1 4O7      -0.449000
      2 C25         -0.2810     2.5660    -0.7750 c6         1 4O7       0.337300
      3 C24          0.0500     3.1490     0.6200 c6         1 4O7      -0.125400
      4 C23          1.1460     2.3670     1.3770 c6         1 4O7       0.162500
      5 C22          2.3820     2.1600     0.4420 c6         1 4O7       0.129300
      6 C21          1.9820     1.5130    -0.9410 c6         1 4O7       0.360000
      7 C26          3.1160     1.7890    -1.9820 c3         1 4O7      -0.098100
      8 N2           1.6410     0.0390    -0.8490 na         1 4O7      -0.096700
      9 C18          0.3610    -0.5410    -0.6880 cc         1 4O7       0.043900
     10 C19         -0.9130     0.0760    -0.6570 cc         1 4O7       0.049900
     11 C6          -2.1170    -0.5910    -0.5630 cd         1 4O7      -0.126400
     12 C7          -2.0940    -2.1190    -0.5070 c5         1 4O7      -0.010500
     13 C10         -0.6750    -2.7620    -0.2330 c5         1 4O7      -0.018500
     14 C11          0.5410    -1.8980    -0.5480 cd         1 4O7      -0.125400
     15 C12          1.9390    -2.2020    -0.5880 ca         1 4O7      -0.089800
     16 C17          2.5980    -1.0010    -0.7480 ca         1 4O7      -0.009200
     17 C16          4.0110    -0.9910    -0.7430 ca         1 4O7      -0.116000
     18 C15          4.7040    -2.2140    -0.6160 ca         1 4O7      -0.105000
     19 C14          4.0010    -3.4310    -0.4800 ca         1 4O7      -0.138000
     20 C13          2.5940    -3.4320    -0.4560 ca         1 4O7      -0.069000
     21 C9          -0.7380    -2.9960     1.2950 c5         1 4O7       0.139800
     22 N1          -2.1010    -3.5370     1.4610 n7         1 4O7      -0.864400
     23 C8          -2.9160    -2.5710     0.7530 c5         1 4O7       0.372500
     24 O5          -4.0930    -3.2610     0.4450 oh         1 4O7      -0.660000
     25 C5          -3.1960     0.3680    -0.6100 ca         1 4O7      -0.078800
     26 C20         -2.6010     1.6010    -0.7310 ca         1 4O7      -0.041200
     27 C1          -3.3740     2.7730    -0.7910 ca         1 4O7      -0.140000
     28 C2          -4.7790     2.6460    -0.7320 ca         1 4O7      -0.094000
     29 C3          -5.3810     1.3700    -0.6170 ca         1 4O7      -0.146000
     30 C4          -4.5860     0.2060    -0.5540 ca         1 4O7      -0.057000
     31 N3          -1.2160     1.4320    -0.7740 na         1 4O7      -0.100700
     32 O6           3.4470     1.4230     1.1060 os         1 4O7      -0.437000
     33 C27          4.0680     2.0330     2.2530 c3         1 4O7       0.139900
     34 N4           0.6610     1.1020     1.9770 n7         1 4O7      -0.869400
     35 C28         -0.2690     1.1820     3.1180 c3         1 4O7       0.152100
     36 H1          -0.8290     3.3460    -1.3210 h2         1 4O7       0.089700
     37 H2           0.4010     4.1790     0.4760 hc         1 4O7       0.065200
     38 H3          -0.8640     3.2360     1.2200 hc         1 4O7       0.065200
     39 H4           1.4730     3.0080     2.2090 h1         1 4O7       0.025700
     40 H5           2.7760     3.1620     0.2160 h1         1 4O7       0.046700
     41 H6           4.1080     1.8270    -1.5250 hc         1 4O7       0.061367
     42 H7           3.1270     1.0360    -2.7780 hc         1 4O7       0.061367
     43 H8           2.9900     2.7660    -2.4650 hc         1 4O7       0.061367
     44 H9          -2.5190    -2.5370    -1.4270 hc         1 4O7       0.074700
     45 H10         -0.6010    -3.7260    -0.7500 hc         1 4O7       0.058700
     46 H11          4.5890    -0.0800    -0.8100 ha         1 4O7       0.112000
     47 H12          5.7910    -2.2180    -0.6140 ha         1 4O7       0.105000
     48 H13          4.5460    -4.3670    -0.3790 ha         1 4O7       0.109000
     49 H14          2.0350    -4.3560    -0.3300 ha         1 4O7       0.111000
     50 H15          0.0330    -3.7020     1.6360 h1         1 4O7       0.060200
     51 H16         -0.6110    -2.0560     1.8550 h1         1 4O7       0.060200
     52 H17         -2.1540    -4.4110     0.9290 hn         1 4O7       0.407000
     53 H19         -3.1310    -1.7050     1.3970 h2         1 4O7       0.057700
     54 H20         -4.3860    -3.6300     1.3040 ho         1 4O7       0.455000
     55 H21         -2.9180     3.7560    -0.8800 ha         1 4O7       0.106000
     56 H22         -5.4030     3.5350    -0.7770 ha         1 4O7       0.107000
     57 H23         -6.4650     1.2850    -0.5750 ha         1 4O7       0.110000
     58 H24         -5.0380    -0.7790    -0.4670 ha         1 4O7       0.130000
     59 H25          3.3570     2.1360     3.0820 h1         1 4O7       0.034700
     60 H26          4.9050     1.4160     2.6020 h1         1 4O7       0.034700
     61 H27          4.4590     3.0280     2.0020 h1         1 4O7       0.034700
     62 H28          1.4890     0.5720     2.2770 hn         1 4O7       0.438000
     63 H30          0.1820     1.7380     3.9520 h1         1 4O7       0.032033
     64 H31         -1.2050     1.6810     2.8350 h1         1 4O7       0.032033
     65 H32         -0.5220     0.1760     3.4760 h1         1 4O7       0.032033
@<TRIPOS>BOND
     1     1     2 1   
     2     1     6 1   
     3     2     3 1   
     4     2    31 1   
     5     2    36 1   
     6     3     4 1   
     7     3    37 1   
     8     3    38 1   
     9     4     5 1   
    10     4    34 1   
    11     4    39 1   
    12     5     6 1   
    13     5    32 1   
    14     5    40 1   
    15     6     7 1   
    16     6     8 1   
    17     7    41 1   
    18     7    42 1   
    19     7    43 1   
    20     8     9 1   
    21     8    16 1   
    22     9    10 1   
    23     9    14 2   
    24    10    11 2   
    25    10    31 1   
    26    11    12 1   
    27    11    25 1   
    28    12    13 1   
    29    12    23 1   
    30    12    44 1   
    31    13    14 1   
    32    13    21 1   
    33    13    45 1   
    34    14    15 1   
    35    15    16 ar  
    36    15    20 ar  
    37    16    17 ar  
    38    17    18 ar  
    39    17    46 1   
    40    18    19 ar  
    41    18    47 1   
    42    19    20 ar  
    43    19    48 1   
    44    20    49 1   
    45    21    22 1   
    46    21    50 1   
    47    21    51 1   
    48    22    23 1   
    49    22    52 1   
    50    23    24 1   
    51    23    53 1   
    52    24    54 1   
    53    25    26 ar  
    54    25    30 ar  
    55    26    27 ar  
    56    26    31 1   
    57    27    28 ar  
    58    27    55 1   
    59    28    29 ar  
    60    28    56 1   
    61    29    30 ar  
    62    29    57 1   
    63    30    58 1   
    64    32    33 1   
    65    33    59 1   
    66    33    60 1   
    67    33    61 1   
    68    34    35 1   
    69    34    62 1   
    70    35    63 1   
    71    35    64 1   
    72    35    65 1   
@<TRIPOS>SUBSTRUCTURE
     1 4O7         1 TEMP              0 ****  ****    0 ROOT
