@<TRIPOS>MOLECULE
4O8
   35    36     1     0     0
SMALL
bcc


@<TRIPOS>ATOM
      1 O21         -7.0620    -2.7660     0.2430 o          1 4O8      -0.809800
      2 C19         -5.8370    -2.5530     0.1570 c          1 4O8       0.940600
      3 O20         -4.9130    -3.3770     0.1520 o          1 4O8      -0.809800
      4 C18         -5.4890    -1.0580     0.0570 c3         1 4O8      -0.027600
      5 O17         -4.0910    -0.8760    -0.0980 os         1 4O8      -0.245900
      6 C11         -3.6030     0.3610    -0.1800 ca         1 4O8       0.228100
      7 C13         -4.3840     1.5150    -0.1020 ca         1 4O8      -0.242000
      8 C15         -3.7690     2.7560    -0.1730 ca         1 4O8       0.089400
      9 CL2         -4.7620     4.1730    -0.0800 cl         1 4O8      -0.142400
     10 C14         -2.4010     2.8970    -0.3090 ca         1 4O8      -0.210000
     11 C12         -1.6350     1.7410    -0.3750 ca         1 4O8      -0.066000
     12 C10         -2.2120     0.4820    -0.3230 ca         1 4O8      -0.215600
     13 C9          -1.3510    -0.7300    -0.4930 c          1 4O8       0.708700
     14 O16         -1.5220    -1.5250    -1.4000 o          1 4O8      -0.553100
     15 N8          -0.3650    -0.8250     0.4190 ns         1 4O8      -0.582900
     16 C7           0.6950    -1.8040     0.3660 c3         1 4O8       0.154300
     17 C1           2.0420    -1.1440     0.2270 ca         1 4O8      -0.174300
     18 C2           2.3680    -0.3960    -0.8970 ca         1 4O8       0.173900
     19 F25          1.4540    -0.2970    -1.8670 f          1 4O8      -0.123900
     20 C3           3.0280    -1.2100     1.1990 ca         1 4O8       0.173900
     21 F24          2.7840    -1.9100     2.3120 f          1 4O8      -0.123900
     22 C5           4.2600    -0.5910     1.0890 ca         1 4O8      -0.174500
     23 C6           4.5140     0.1380    -0.0600 ca         1 4O8       0.025100
     24 BR2          6.1740     0.9990    -0.2520 br         1 4O8      -0.090100
     25 C4           3.5740     0.2510    -1.0730 ca         1 4O8      -0.174500
     26 H2          -6.0280    -0.6210    -0.7920 h1         1 4O8       0.022700
     27 H3          -5.8430    -0.5490     0.9620 h1         1 4O8       0.022700
     28 H4          -5.4560     1.4600     0.0170 ha         1 4O8       0.161000
     29 H5          -1.9390     3.8720    -0.3650 ha         1 4O8       0.135000
     30 H6          -0.5620     1.8340    -0.4890 ha         1 4O8       0.123000
     31 H7          -0.3460    -0.1650     1.1810 hn         1 4O8       0.313500
     32 H8           0.6690    -2.4260     1.2600 h1         1 4O8       0.080200
     33 H9           0.5100    -2.4660    -0.4790 h1         1 4O8       0.080200
     34 H10          4.9860    -0.6860     1.8850 ha         1 4O8       0.165500
     35 H11          3.7600     0.8170    -1.9760 ha         1 4O8       0.165500
@<TRIPOS>BOND
     1     1     2 1   
     2     2     3 1   
     3     2     4 1   
     4     4     5 1   
     5     4    26 1   
     6     4    27 1   
     7     5     6 1   
     8     6     7 ar  
     9     6    12 ar  
    10     7     8 ar  
    11     7    28 1   
    12     8     9 1   
    13     8    10 ar  
    14    10    11 ar  
    15    10    29 1   
    16    11    12 ar  
    17    11    30 1   
    18    12    13 1   
    19    13    14 2   
    20    13    15 1   
    21    15    16 1   
    22    15    31 1   
    23    16    17 1   
    24    16    32 1   
    25    16    33 1   
    26    17    18 ar  
    27    17    20 ar  
    28    18    19 1   
    29    18    25 ar  
    30    20    21 1   
    31    20    22 ar  
    32    22    23 ar  
    33    22    34 1   
    34    23    24 1   
    35    23    25 ar  
    36    25    35 1   
@<TRIPOS>SUBSTRUCTURE
     1 4O8         1 TEMP              0 ****  ****    0 ROOT
