@<TRIPOS>MOLECULE
4O8
   35    36     1     0     0
SMALL
No Charge or Current Charge


@<TRIPOS>ATOM
      1 O21         -7.2970    -2.8720     0.7200 o          1 4O8      -0.704500
      2 C19         -6.1180    -2.6160     0.5110 c          1 4O8       0.730000
      3 O20         -5.2560    -3.4810     0.4150 o          1 4O8      -0.704500
      4 C18         -5.7260    -1.1180     0.3670 c3         1 4O8      -0.004400
      5 O17         -4.3190    -0.9170     0.0850 os         1 4O8      -0.269100
      6 C11         -3.7570     0.3390    -0.0670 ca         1 4O8       0.228100
      7 C13         -4.5450     1.5030     0.0770 ca         1 4O8      -0.224000
      8 C15         -3.9670     2.7710    -0.0380 ca         1 4O8       0.181000
      9 Cl2         -4.9630     4.2080     0.1440 cl         1 4O8      -0.234000
     10 C14         -2.6000     2.8980    -0.2970 ca         1 4O8      -0.192000
     11 C12         -1.8020     1.7540    -0.4440 ca         1 4O8      -0.048000
     12 C10         -2.3680     0.4590    -0.3330 ca         1 4O8      -0.215600
     13 C9          -1.4920    -0.7640    -0.5100 c          1 4O8       0.641700
     14 O16         -1.9100    -1.8530    -0.8760 o          1 4O8      -0.553100
     15 N8          -0.1480    -0.5680    -0.2920 ns         1 4O8      -0.515900
     16 C7           0.8720    -1.6020    -0.4460 c3         1 4O8       0.154300
     17 C1           2.2600    -1.0460    -0.1560 ca         1 4O8      -0.174300
     18 C2           3.0310    -0.4660    -1.1840 ca         1 4O8       0.209000
     19 F25          2.5440    -0.3940    -2.4430 f          1 4O8      -0.159000
     20 C3           2.7980    -1.0990     1.1460 ca         1 4O8       0.209000
     21 F24          2.0840    -1.6420     2.1580 f          1 4O8      -0.159000
     22 C5           4.0760    -0.5860     1.4150 ca         1 4O8      -0.156500
     23 C6           4.8330    -0.0130     0.3820 ca         1 4O8       0.025100
     24 Br2          6.5740     0.6870     0.7460 br         1 4O8      -0.090100
     25 C4           4.3100     0.0470    -0.9180 ca         1 4O8      -0.156500
     26 H2          -6.3370    -0.6920    -0.4390 h1         1 4O8       0.022700
     27 H3          -5.9980    -0.6180     1.3050 h1         1 4O8       0.022700
     28 H4          -5.6080     1.4450     0.2840 ha         1 4O8       0.143000
     29 H5          -2.1560     3.8860    -0.3900 ha         1 4O8       0.117000
     30 H6          -0.7470     1.8920    -0.6680 ha         1 4O8       0.105000
     31 H7           0.1380     0.3500     0.0230 hn         1 4O8       0.313500
     32 H8           0.6450    -2.4340     0.2350 h1         1 4O8       0.080200
     33 H9           0.8300    -1.9980    -1.4700 h1         1 4O8       0.080200
     34 H10          4.4760    -0.6330     2.4250 ha         1 4O8       0.147500
     35 H11          4.8910     0.4920    -1.7220 ha         1 4O8       0.147500
@<TRIPOS>BOND
     1     1     2 1   
     2     2     3 1   
     3     2     4 1   
     4     4     5 1   
     5     4    26 1   
     6     4    27 1   
     7     5     6 1   
     8     6     7 ar  
     9     6    12 ar  
    10     7     8 ar  
    11     7    28 1   
    12     8     9 1   
    13     8    10 ar  
    14    10    11 ar  
    15    10    29 1   
    16    11    12 ar  
    17    11    30 1   
    18    12    13 1   
    19    13    14 2   
    20    13    15 1   
    21    15    16 1   
    22    15    31 1   
    23    16    17 1   
    24    16    32 1   
    25    16    33 1   
    26    17    18 ar  
    27    17    20 ar  
    28    18    19 1   
    29    18    25 ar  
    30    20    21 1   
    31    20    22 ar  
    32    22    23 ar  
    33    22    34 1   
    34    23    24 1   
    35    23    25 ar  
    36    25    35 1   
@<TRIPOS>SUBSTRUCTURE
     1 4O8         1 TEMP              0 ****  ****    0 ROOT
