@<TRIPOS>MOLECULE
4O9
   35    36     1     0     0
SMALL
No Charge or Current Charge


@<TRIPOS>ATOM
      1 O21         -8.0610    -2.7320     0.7470 o          1 4O9      -0.704500
      2 C19         -6.8770    -2.5060     0.5350 c          1 4O9       0.730000
      3 O20         -6.0350    -3.3920     0.4440 o          1 4O9      -0.704500
      4 C18         -6.4490    -1.0180     0.3800 c3         1 4O9      -0.003400
      5 O17         -5.0380    -0.8530     0.0950 os         1 4O9      -0.270100
      6 C11         -4.4470     0.3880    -0.0670 ca         1 4O9       0.228100
      7 C13         -5.2070     1.5720     0.0710 ca         1 4O9      -0.224000
      8 C15         -4.5990     2.8250    -0.0530 ca         1 4O9       0.181000
      9 Cl2         -5.5600     4.2860     0.1210 cl         1 4O9      -0.234000
     10 C14         -3.2290     2.9180    -0.3150 ca         1 4O9      -0.191000
     11 C12         -2.4600     1.7540    -0.4550 ca         1 4O9      -0.048000
     12 C10         -3.0560     0.4730    -0.3350 ca         1 4O9      -0.215600
     13 C9          -2.2100    -0.7710    -0.5050 c          1 4O9       0.641700
     14 O16         -2.6540    -1.8520    -0.8640 o          1 4O9      -0.552100
     15 N8          -0.8610    -0.6060    -0.2890 ns         1 4O9      -0.516900
     16 C7           0.1330    -1.6660    -0.4380 c3         1 4O9       0.153300
     17 C1           1.5350    -1.1420    -0.1520 ca         1 4O9      -0.171300
     18 C2           2.3190    -0.5880    -1.1850 ca         1 4O9       0.206500
     19 F25          1.8330    -0.5120    -2.4440 f          1 4O9      -0.159000
     20 C3           2.0730    -1.1990     1.1500 ca         1 4O9       0.206500
     21 F24          1.3470    -1.7180     2.1660 f          1 4O9      -0.159000
     22 C5           3.3630    -0.7170     1.4140 ca         1 4O9      -0.151500
     23 C6           4.1280    -0.1710     0.3750 ca         1 4O9       0.239000
     24 I23          6.1190     0.5750     0.7800 i          1 4O9      -0.307000
     25 C4           3.6090    -0.1050    -0.9240 ca         1 4O9      -0.151500
     26 H2          -7.0510    -0.5830    -0.4280 h1         1 4O9       0.022200
     27 H3          -6.7080    -0.5050     1.3150 h1         1 4O9       0.022200
     28 H4          -6.2710     1.5400     0.2800 ha         1 4O9       0.143000
     29 H5          -2.7630     3.8940    -0.4150 ha         1 4O9       0.117000
     30 H6          -1.4020     1.8660    -0.6820 ha         1 4O9       0.105000
     31 H7          -0.5540     0.3070     0.0200 hn         1 4O9       0.313500
     32 H8          -0.1130    -2.4880     0.2490 h1         1 4O9       0.080200
     33 H9           0.0800    -2.0670    -1.4590 h1         1 4O9       0.080200
     34 H10          3.7670    -0.7650     2.4200 ha         1 4O9       0.145500
     35 H11          4.2040     0.3200    -1.7270 ha         1 4O9       0.145500
@<TRIPOS>BOND
     1     1     2 1   
     2     2     3 1   
     3     2     4 1   
     4     4     5 1   
     5     4    26 1   
     6     4    27 1   
     7     5     6 1   
     8     6     7 ar  
     9     6    12 ar  
    10     7     8 ar  
    11     7    28 1   
    12     8     9 1   
    13     8    10 ar  
    14    10    11 ar  
    15    10    29 1   
    16    11    12 ar  
    17    11    30 1   
    18    12    13 1   
    19    13    14 2   
    20    13    15 1   
    21    15    16 1   
    22    15    31 1   
    23    16    17 1   
    24    16    32 1   
    25    16    33 1   
    26    17    18 ar  
    27    17    20 ar  
    28    18    19 1   
    29    18    25 ar  
    30    20    21 1   
    31    20    22 ar  
    32    22    23 ar  
    33    22    34 1   
    34    23    24 1   
    35    23    25 ar  
    36    25    35 1   
@<TRIPOS>SUBSTRUCTURE
     1 4O9         1 TEMP              0 ****  ****    0 ROOT
