@<TRIPOS>MOLECULE
4O9
   35    36     1     0     0
SMALL
abcg2


@<TRIPOS>ATOM
      1 O21         -7.8160    -2.6500     0.2380 o          1 4O9      -0.704500
      2 C19         -6.5870    -2.4600     0.1550 c          1 4O9       0.730000
      3 O20         -5.6790    -3.3010     0.1490 o          1 4O9      -0.704500
      4 C18         -6.2100    -0.9720     0.0570 c3         1 4O9      -0.003400
      5 O17         -4.8080    -0.8180    -0.1000 os         1 4O9      -0.270100
      6 C11         -4.2930     0.4090    -0.1750 ca         1 4O9       0.228100
      7 C13         -5.0480     1.5780    -0.0940 ca         1 4O9      -0.224000
      8 C15         -4.4070     2.8070    -0.1570 ca         1 4O9       0.181000
      9 CL2         -5.3690     4.2450    -0.0600 cl         1 4O9      -0.234000
     10 C14         -3.0360     2.9180    -0.2890 ca         1 4O9      -0.191000
     11 C12         -2.2950     1.7460    -0.3590 ca         1 4O9      -0.048000
     12 C10         -2.8990     0.4990    -0.3140 ca         1 4O9      -0.215600
     13 C9          -2.0650    -0.7310    -0.4860 c          1 4O9       0.641700
     14 O16         -2.2530    -1.5200    -1.3940 o          1 4O9      -0.552100
     15 N8          -1.0830    -0.8510     0.4280 ns         1 4O9      -0.516900
     16 C7          -0.0470    -1.8550     0.3780 c3         1 4O9       0.153300
     17 C1           1.3160    -1.2300     0.2300 ca         1 4O9      -0.171300
     18 C2           1.6560    -0.4970    -0.8990 ca         1 4O9       0.206500
     19 F25          0.7400    -0.3770    -1.8650 f          1 4O9      -0.159000
     20 C3           2.3050    -1.3200     1.1970 ca         1 4O9       0.206500
     21 F24          2.0470    -2.0090     2.3140 f          1 4O9      -0.159000
     22 C5           3.5540    -0.7370     1.0760 ca         1 4O9      -0.151500
     23 C6           3.8230    -0.0190    -0.0770 ca         1 4O9       0.239000
     24 I23          5.7000     0.8860    -0.3070 i          1 4O9      -0.307000
     25 C4           2.8790     0.1150    -1.0850 ca         1 4O9      -0.151500
     26 H2          -6.7410    -0.5220    -0.7900 h1         1 4O9       0.022200
     27 H3          -6.5510    -0.4580     0.9630 h1         1 4O9       0.022200
     28 H4          -6.1220     1.5470     0.0210 ha         1 4O9       0.143000
     29 H5          -2.5520     3.8830    -0.3400 ha         1 4O9       0.117000
     30 H6          -1.2200     1.8160    -0.4700 ha         1 4O9       0.105000
     31 H7          -1.0500    -0.1910     1.1900 hn         1 4O9       0.313500
     32 H8          -0.0860    -2.4700     1.2760 h1         1 4O9       0.080200
     33 H9          -0.2500    -2.5180    -0.4610 h1         1 4O9       0.080200
     34 H10          4.2790    -0.8510     1.8700 ha         1 4O9       0.145500
     35 H11          3.0730     0.6700    -1.9920 ha         1 4O9       0.145500
@<TRIPOS>BOND
     1     1     2 1   
     2     2     3 1   
     3     2     4 1   
     4     4     5 1   
     5     4    26 1   
     6     4    27 1   
     7     5     6 1   
     8     6     7 ar  
     9     6    12 ar  
    10     7     8 ar  
    11     7    28 1   
    12     8     9 1   
    13     8    10 ar  
    14    10    11 ar  
    15    10    29 1   
    16    11    12 ar  
    17    11    30 1   
    18    12    13 1   
    19    13    14 2   
    20    13    15 1   
    21    15    16 1   
    22    15    31 1   
    23    16    17 1   
    24    16    32 1   
    25    16    33 1   
    26    17    18 ar  
    27    17    20 ar  
    28    18    19 1   
    29    18    25 ar  
    30    20    21 1   
    31    20    22 ar  
    32    22    23 ar  
    33    22    34 1   
    34    23    24 1   
    35    23    25 ar  
    36    25    35 1   
@<TRIPOS>SUBSTRUCTURE
     1 4O9         1 TEMP              0 ****  ****    0 ROOT
