@<TRIPOS>MOLECULE
4OA
   66    69     1     0     0
SMALL
bcc


@<TRIPOS>ATOM
      1 C1           4.3960     1.6610    -0.4360 c6         1 4OA      -0.065400
      2 C10          3.6280     0.4170    -0.9190 c6         1 4OA      -0.030000
      3 C11          1.3250     1.5660    -0.7230 c6         1 4OA      -0.070400
      4 C12         -0.0940     1.5160    -0.1490 c6         1 4OA      -0.061400
      5 C13         -0.8210     0.2220    -0.5190 c5         1 4OA      -0.039000
      6 C14          0.0830    -0.9410    -0.0680 c5         1 4OA      -0.066700
      7 C15         -0.8020    -2.1700    -0.2190 c5         1 4OA      -0.073400
      8 C16         -2.2030    -1.6570     0.1620 c5         1 4OA      -0.077400
      9 C17         -2.1110    -0.1100     0.2730 c5         1 4OA      -0.046700
     10 C18         -1.1120     0.1830    -2.0240 c3         1 4OA      -0.075100
     11 C19          3.6030     0.4880    -2.4520 c3         1 4OA      -0.083100
     12 O1B          5.8960     0.3530     2.7590 oh         1 4OA      -0.598800
     13 C2           4.7420     1.6620     1.0460 c6         1 4OA      -0.109400
     14 C20         -3.4280     0.5750    -0.1240 c3         1 4OA      -0.057700
     15 C21         -3.3580     2.0970    -0.0280 c3         1 4OA      -0.080100
     16 C22         -4.5860     0.0370     0.7300 c3         1 4OA      -0.060400
     17 C23         -5.9660     0.5020     0.2910 c3         1 4OA      -0.205400
     18 C24         -7.1540    -0.1910     0.9840 c          1 4OA       0.925600
     19 C3           5.5680     0.4300     1.3840 c6         1 4OA       0.146100
     20 C4           4.7960    -0.8220     1.0110 c6         1 4OA      -0.070400
     21 O4          -8.2630     0.3730     0.8610 o          1 4OA      -0.848300
     22 O4A         -6.9390    -1.2590     1.5900 o          1 4OA      -0.848300
     23 C5           4.4210    -0.8390    -0.4750 c6         1 4OA      -0.047700
     24 C6           3.6900    -2.1310    -0.8370 c6         1 4OA      -0.067400
     25 C7           2.2730    -2.1740    -0.2810 c6         1 4OA      -0.071400
     26 C8           1.4630    -0.9550    -0.7080 c6         1 4OA      -0.044700
     27 C9           2.1870     0.3570    -0.3460 c6         1 4OA      -0.044700
     28 H1           5.3330     1.7100    -1.0040 hc         1 4OA       0.036200
     29 H1A          3.8520     2.5710    -0.6980 hc         1 4OA       0.036200
     30 H11          1.2700     1.6570    -1.8120 hc         1 4OA       0.031700
     31 H11A         1.7960     2.4870    -0.3720 hc         1 4OA       0.031700
     32 H12         -0.0500     1.5950     0.9440 hc         1 4OA       0.041200
     33 H12A        -0.6340     2.3970    -0.5000 hc         1 4OA       0.041200
     34 H14          0.2460    -0.7910     1.0110 hc         1 4OA       0.042700
     35 H15         -0.7800    -2.5340    -1.2500 hc         1 4OA       0.032200
     36 H15A        -0.4770    -3.0010     0.4100 hc         1 4OA       0.032200
     37 H16         -2.9400    -1.9390    -0.5950 hc         1 4OA       0.052700
     38 H16A        -2.5450    -2.0980     1.0980 hc         1 4OA       0.052700
     39 H17         -1.9130     0.1520     1.3230 hc         1 4OA       0.041700
     40 H18         -0.2060     0.1940    -2.6290 hc         1 4OA       0.028700
     41 H18A        -1.6790    -0.7030    -2.3140 hc         1 4OA       0.028700
     42 H18B        -1.6990     1.0520    -2.3270 hc         1 4OA       0.028700
     43 H19          4.6040     0.3200    -2.8540 hc         1 4OA       0.031367
     44 H19A         2.9420    -0.2490    -2.9080 hc         1 4OA       0.031367
     45 H19B         3.2790     1.4710    -2.7990 hc         1 4OA       0.031367
     46 HO1B         6.4040     1.1380     2.9870 ho         1 4OA       0.397000
     47 H2           5.3000     2.5720     1.2900 hc         1 4OA       0.045200
     48 H2A          3.8390     1.6710     1.6650 hc         1 4OA       0.045200
     49 H20         -3.6440     0.3060    -1.1670 hc         1 4OA       0.037700
     50 H21         -3.0780     2.4120     0.9810 hc         1 4OA       0.023700
     51 H21A        -2.6330     2.5250    -0.7190 hc         1 4OA       0.023700
     52 H21B        -4.3180     2.5590    -0.2600 hc         1 4OA       0.023700
     53 H22         -4.5820    -1.0530     0.7070 hc         1 4OA       0.041700
     54 H22A        -4.4130     0.3130     1.7780 hc         1 4OA       0.041700
     55 H23         -6.0820     1.5810     0.4200 hc         1 4OA       0.015700
     56 H23A        -6.0700     0.3330    -0.7900 hc         1 4OA       0.015700
     57 H3           6.4860     0.4610     0.7750 h1         1 4OA       0.019700
     58 H4           5.4010    -1.7070     1.2290 hc         1 4OA       0.053200
     59 H4A          3.9090    -0.8840     1.6480 hc         1 4OA       0.053200
     60 H5           5.3650    -0.8260    -1.0350 hc         1 4OA       0.034700
     61 H6           3.6520    -2.2370    -1.9260 hc         1 4OA       0.035200
     62 H6A          4.2640    -2.9890    -0.4720 hc         1 4OA       0.035200
     63 H7           1.7780    -3.0860    -0.6250 hc         1 4OA       0.040700
     64 H7A          2.2910    -2.2360     0.8130 hc         1 4OA       0.040700
     65 H8           1.3430    -1.0100    -1.7970 hc         1 4OA       0.046700
     66 H9           2.2620     0.3620     0.7500 hc         1 4OA       0.047700
@<TRIPOS>BOND
     1     1     2 1   
     2     1    13 1   
     3     1    28 1   
     4     1    29 1   
     5     2    11 1   
     6     2    23 1   
     7     2    27 1   
     8     3     4 1   
     9     3    27 1   
    10     3    30 1   
    11     3    31 1   
    12     4     5 1   
    13     4    32 1   
    14     4    33 1   
    15     5     6 1   
    16     5     9 1   
    17     5    10 1   
    18     6     7 1   
    19     6    26 1   
    20     6    34 1   
    21     7     8 1   
    22     7    35 1   
    23     7    36 1   
    24     8     9 1   
    25     8    37 1   
    26     8    38 1   
    27     9    14 1   
    28     9    39 1   
    29    10    40 1   
    30    10    41 1   
    31    10    42 1   
    32    11    43 1   
    33    11    44 1   
    34    11    45 1   
    35    12    19 1   
    36    12    46 1   
    37    13    19 1   
    38    13    47 1   
    39    13    48 1   
    40    14    15 1   
    41    14    16 1   
    42    14    49 1   
    43    15    50 1   
    44    15    51 1   
    45    15    52 1   
    46    16    17 1   
    47    16    53 1   
    48    16    54 1   
    49    17    18 1   
    50    17    55 1   
    51    17    56 1   
    52    18    21 1   
    53    18    22 1   
    54    19    20 1   
    55    19    57 1   
    56    20    23 1   
    57    20    58 1   
    58    20    59 1   
    59    23    24 1   
    60    23    60 1   
    61    24    25 1   
    62    24    61 1   
    63    24    62 1   
    64    25    26 1   
    65    25    63 1   
    66    25    64 1   
    67    26    27 1   
    68    26    65 1   
    69    27    66 1   
@<TRIPOS>SUBSTRUCTURE
     1 4OA         1 TEMP              0 ****  ****    0 ROOT
