@<TRIPOS>MOLECULE
4OA
   66    69     1     0     0
SMALL
No Charge or Current Charge


@<TRIPOS>ATOM
      1 C1           4.4770     1.6830    -0.4720 c6         1 4OA      -0.065400
      2 C10          3.7100     0.3890    -0.9280 c6         1 4OA      -0.030000
      3 C11          1.3390     1.5730    -0.8710 c6         1 4OA      -0.070400
      4 C12         -0.1170     1.5080    -0.3210 c6         1 4OA      -0.061400
      5 C13         -0.8500     0.1750    -0.6910 c5         1 4OA      -0.039000
      6 C14          0.0450    -1.0050    -0.1750 c5         1 4OA      -0.066700
      7 C15         -0.8420    -2.2430    -0.4470 c5         1 4OA      -0.073400
      8 C16         -2.2690    -1.7340    -0.0710 c5         1 4OA      -0.077400
      9 C17         -2.1430    -0.1770     0.1540 c5         1 4OA      -0.046700
     10 C18         -1.1340     0.1820    -2.2350 c3         1 4OA      -0.075100
     11 C19          3.7670     0.3760    -2.4980 c3         1 4OA      -0.083100
     12 O1B          5.6490     0.6200     2.9820 oh         1 4OA      -0.661000
     13 C2           4.7020     1.7760     1.0570 c6         1 4OA      -0.109400
     14 C20         -3.4910     0.5940    -0.1130 c3         1 4OA      -0.057700
     15 C21         -3.3540     2.1370    -0.0270 c3         1 4OA      -0.080100
     16 C22         -4.6320     0.0780     0.8240 c3         1 4OA      -0.060400
     17 C23         -6.0590     0.6170     0.5230 c3         1 4OA      -0.205400
     18 C24         -7.1090    -0.1890     1.3110 c          1 4OA       0.715000
     19 C3           5.4850     0.5450     1.5640 c6         1 4OA       0.169300
     20 C4           4.7520    -0.7610     1.1820 c6         1 4OA      -0.070400
     21 O4          -7.3950     0.1820     2.4390 o          1 4OA      -0.743000
     22 O4A         -7.5770    -1.1910     0.7920 o          1 4OA      -0.743000
     23 C5           4.4920    -0.8600    -0.3580 c6         1 4OA      -0.047700
     24 C6           3.7750    -2.1960    -0.7110 c6         1 4OA      -0.067400
     25 C7           2.3050    -2.2250    -0.2270 c6         1 4OA      -0.071400
     26 C8           1.4930    -1.0080    -0.7540 c6         1 4OA      -0.044700
     27 C9           2.2080     0.3520    -0.4050 c6         1 4OA      -0.044700
     28 H1           5.4630     1.7060    -0.9580 hc         1 4OA       0.036200
     29 H1A          3.9710     2.5900    -0.8260 hc         1 4OA       0.036200
     30 H11          1.3150     1.6390    -1.9650 hc         1 4OA       0.031700
     31 H11A         1.7840     2.5120    -0.5210 hc         1 4OA       0.031700
     32 H12         -0.0900     1.6280     0.7710 hc         1 4OA       0.041200
     33 H12A        -0.6590     2.3760    -0.7100 hc         1 4OA       0.041200
     34 H14          0.1960    -0.9150     0.9090 hc         1 4OA       0.042700
     35 H15         -0.7900    -2.5620    -1.4940 hc         1 4OA       0.032200
     36 H15A        -0.5450    -3.1040     0.1620 hc         1 4OA       0.032200
     37 H16         -2.9790    -1.9750    -0.8710 hc         1 4OA       0.052700
     38 H16A        -2.6380    -2.2330     0.8320 hc         1 4OA       0.052700
     39 H17         -1.9260     0.0050     1.2140 hc         1 4OA       0.041700
     40 H18         -0.2150     0.1830    -2.8300 hc         1 4OA       0.028700
     41 H18A        -1.7220    -0.6820    -2.5630 hc         1 4OA       0.028700
     42 H18B        -1.7030     1.0730    -2.5250 hc         1 4OA       0.028700
     43 H19          4.8020     0.3010    -2.8540 hc         1 4OA       0.031367
     44 H19A         3.2200    -0.4590    -2.9450 hc         1 4OA       0.031367
     45 H19B         3.3570     1.2970    -2.9270 hc         1 4OA       0.031367
     46 HO1B         6.1440     1.4480     3.1630 ho         1 4OA       0.436000
     47 H2           5.2650     2.6920     1.2840 hc         1 4OA       0.045200
     48 H2A          3.7430     1.8670     1.5830 hc         1 4OA       0.045200
     49 H20         -3.8060     0.3690    -1.1390 hc         1 4OA       0.037700
     50 H21         -2.8570     2.4390     0.9020 hc         1 4OA       0.023700
     51 H21A        -2.7870     2.5230    -0.8790 hc         1 4OA       0.023700
     52 H21B        -4.3250     2.6400    -0.0740 hc         1 4OA       0.023700
     53 H22         -4.6840    -1.0140     0.7550 hc         1 4OA       0.041700
     54 H22A        -4.3740     0.3050     1.8660 hc         1 4OA       0.041700
     55 H23         -6.0760     1.6620     0.8520 hc         1 4OA       0.015700
     56 H23A        -6.2120     0.4860    -0.5550 hc         1 4OA       0.015700
     57 H3           6.4740     0.5390     1.0800 h1         1 4OA       0.019700
     58 H4           5.3580    -1.6190     1.5040 hc         1 4OA       0.053200
     59 H4A          3.8150    -0.8260     1.7480 hc         1 4OA       0.053200
     60 H5           5.4800    -0.8890    -0.8400 hc         1 4OA       0.034700
     61 H6           3.8070    -2.3670    -1.7950 hc         1 4OA       0.035200
     62 H6A          4.3220    -3.0400    -0.2670 hc         1 4OA       0.035200
     63 H7           1.8410    -3.1590    -0.5710 hc         1 4OA       0.040700
     64 H7A          2.2690    -2.2580     0.8690 hc         1 4OA       0.040700
     65 H8           1.4130    -1.1070    -1.8430 hc         1 4OA       0.046700
     66 H9           2.2310     0.4120     0.6900 hc         1 4OA       0.047700
@<TRIPOS>BOND
     1     1     2 1   
     2     1    13 1   
     3     1    28 1   
     4     1    29 1   
     5     2    11 1   
     6     2    23 1   
     7     2    27 1   
     8     3     4 1   
     9     3    27 1   
    10     3    30 1   
    11     3    31 1   
    12     4     5 1   
    13     4    32 1   
    14     4    33 1   
    15     5     6 1   
    16     5     9 1   
    17     5    10 1   
    18     6     7 1   
    19     6    26 1   
    20     6    34 1   
    21     7     8 1   
    22     7    35 1   
    23     7    36 1   
    24     8     9 1   
    25     8    37 1   
    26     8    38 1   
    27     9    14 1   
    28     9    39 1   
    29    10    40 1   
    30    10    41 1   
    31    10    42 1   
    32    11    43 1   
    33    11    44 1   
    34    11    45 1   
    35    12    19 1   
    36    12    46 1   
    37    13    19 1   
    38    13    47 1   
    39    13    48 1   
    40    14    15 1   
    41    14    16 1   
    42    14    49 1   
    43    15    50 1   
    44    15    51 1   
    45    15    52 1   
    46    16    17 1   
    47    16    53 1   
    48    16    54 1   
    49    17    18 1   
    50    17    55 1   
    51    17    56 1   
    52    18    21 1   
    53    18    22 1   
    54    19    20 1   
    55    19    57 1   
    56    20    23 1   
    57    20    58 1   
    58    20    59 1   
    59    23    24 1   
    60    23    60 1   
    61    24    25 1   
    62    24    61 1   
    63    24    62 1   
    64    25    26 1   
    65    25    63 1   
    66    25    64 1   
    67    26    27 1   
    68    26    65 1   
    69    27    66 1   
@<TRIPOS>SUBSTRUCTURE
     1 4OA         1 TEMP              0 ****  ****    0 ROOT
