@<TRIPOS>MOLECULE
4OB
   31    32     1     0     0
SMALL
abcg2


@<TRIPOS>ATOM
      1 FAB          4.2820     1.2880     0.1640 f          1 4OB      -0.112000
      2 CAT          3.4260     0.3500     0.5730 c3         1 4OB       0.358300
      3 FAC          4.0540    -0.8300     0.4670 f          1 4OB      -0.112000
      4 FAD          3.2170     0.5520     1.8820 f          1 4OB      -0.112000
      5 CAS          2.1430     0.3600    -0.1980 ca         1 4OB      -0.200300
      6 CAM          1.1840    -0.6020     0.1060 ca         1 4OB      -0.051000
      7 CAL          1.9010     1.2980    -1.1890 ca         1 4OB      -0.044000
      8 CAH          0.6930     1.2750    -1.8750 ca         1 4OB      -0.117000
      9 CAK         -0.2680     0.3280    -1.5690 ca         1 4OB      -0.041000
     10 CAR         -0.0240    -0.6160    -0.5750 ca         1 4OB      -0.199900
     11 CAP         -1.0620    -1.6300    -0.2360 ce         1 4OB       0.696800
     12 NAN         -0.6220    -2.9040    -0.3990 nu         1 4OB      -0.689900
     13 OAA         -1.3250    -3.9190     0.1830 oh         1 4OB      -0.389300
     14 NAO         -2.2730    -1.3920     0.0880 nf         1 4OB      -0.638100
     15 CAQ         -2.7220    -0.0950     0.3230 ca         1 4OB       0.161400
     16 CAI         -2.1230     0.7530     1.2590 ca         1 4OB      -0.126500
     17 CAF         -2.6390     2.0180     1.4960 ca         1 4OB      -0.099000
     18 CAE         -3.7610     2.4650     0.8100 ca         1 4OB      -0.124000
     19 CAG         -4.3720     1.6210    -0.1090 ca         1 4OB      -0.099000
     20 CAJ         -3.8660     0.3510    -0.3450 ca         1 4OB      -0.126500
     21 H1           1.3630    -1.3280     0.8900 ha         1 4OB       0.131000
     22 H2           2.6370     2.0480    -1.4410 ha         1 4OB       0.135000
     23 H3           0.5060     2.0030    -2.6530 ha         1 4OB       0.128000
     24 H4          -1.2060     0.3190    -2.1090 ha         1 4OB       0.134000
     25 H5           0.3710    -3.0850    -0.4520 hn         1 4OB       0.509000
     26 H6          -1.8360    -4.3250    -0.5280 ho         1 4OB       0.456000
     27 H7          -1.2540     0.4150     1.8110 ha         1 4OB       0.118000
     28 H8          -2.1590     2.6590     2.2250 ha         1 4OB       0.112000
     29 H9          -4.1590     3.4540     0.9960 ha         1 4OB       0.113000
     30 H10         -5.2530     1.9500    -0.6460 ha         1 4OB       0.112000
     31 H11         -4.3490    -0.3050    -1.0580 ha         1 4OB       0.118000
@<TRIPOS>BOND
     1     1     2 1   
     2     2     3 1   
     3     2     4 1   
     4     2     5 1   
     5     5     6 ar  
     6     5     7 ar  
     7     6    10 ar  
     8     6    21 1   
     9     7     8 ar  
    10     7    22 1   
    11     8     9 ar  
    12     8    23 1   
    13     9    10 ar  
    14     9    24 1   
    15    10    11 1   
    16    11    12 1   
    17    11    14 2   
    18    12    13 1   
    19    12    25 1   
    20    13    26 1   
    21    14    15 1   
    22    15    16 ar  
    23    15    20 ar  
    24    16    17 ar  
    25    16    27 1   
    26    17    18 ar  
    27    17    28 1   
    28    18    19 ar  
    29    18    29 1   
    30    19    20 ar  
    31    19    30 1   
    32    20    31 1   
@<TRIPOS>SUBSTRUCTURE
     1 4OB         1 TEMP              0 ****  ****    0 ROOT
