@<TRIPOS>MOLECULE
4OB
   31    32     1     0     0
SMALL
No Charge or Current Charge


@<TRIPOS>ATOM
      1 FAB          4.7110     0.8670    -0.4800 f          1 4OB      -0.112000
      2 CAT          3.7120     0.3790     0.2910 c3         1 4OB       0.358300
      3 FAC          4.0920    -0.8620     0.6730 f          1 4OB      -0.112000
      4 FAD          3.6680     1.1400     1.4080 f          1 4OB      -0.112000
      5 CAS          2.3600     0.3740    -0.4320 ca         1 4OB      -0.200300
      6 CAM          1.3500    -0.5340    -0.0460 ca         1 4OB      -0.051000
      7 CAL          2.0950     1.2960    -1.4670 ca         1 4OB      -0.044000
      8 CAH          0.8450     1.3020    -2.1050 ca         1 4OB      -0.117000
      9 CAK         -0.1510     0.3910    -1.7220 ca         1 4OB      -0.041000
     10 CAR          0.0970    -0.5500    -0.6990 ca         1 4OB      -0.199900
     11 CAP         -0.9750    -1.4900    -0.2450 ce         1 4OB       0.696800
     12 NAN         -0.6180    -2.8350    -0.0450 nu         1 4OB      -0.689900
     13 OAA         -1.3740    -3.6160     0.9530 oh         1 4OB      -0.389300
     14 NAO         -2.2500    -1.2530    -0.3860 nf         1 4OB      -0.638100
     15 CAQ         -2.8640    -0.0900     0.1280 ca         1 4OB       0.161400
     16 CAI         -2.7670     0.2210     1.4970 ca         1 4OB      -0.126500
     17 CAF         -3.3760     1.3840     2.0020 ca         1 4OB      -0.099000
     18 CAE         -4.0870     2.2350     1.1390 ca         1 4OB      -0.124000
     19 CAG         -4.1920     1.9240    -0.2270 ca         1 4OB      -0.099000
     20 CAJ         -3.5830     0.7610    -0.7310 ca         1 4OB      -0.126500
     21 H1           1.5360    -1.2210     0.7780 ha         1 4OB       0.131000
     22 H2           2.8490     2.0170    -1.7750 ha         1 4OB       0.135000
     23 H3           0.6460     2.0190    -2.8990 ha         1 4OB       0.128000
     24 H4          -1.1120     0.4120    -2.2320 ha         1 4OB       0.134000
     25 H5           0.3880    -3.0310    -0.0130 hn         1 4OB       0.509000
     26 H6          -2.0040    -4.1900     0.4500 ho         1 4OB       0.456000
     27 H7          -2.2210    -0.4360     2.1690 ha         1 4OB       0.118000
     28 H8          -3.2980     1.6240     3.0610 ha         1 4OB       0.112000
     29 H9          -4.5590     3.1350     1.5300 ha         1 4OB       0.113000
     30 H10         -4.7450     2.5810    -0.8950 ha         1 4OB       0.112000
     31 H11         -3.6670     0.5200    -1.7870 ha         1 4OB       0.118000
@<TRIPOS>BOND
     1     1     2 1   
     2     2     3 1   
     3     2     4 1   
     4     2     5 1   
     5     5     6 ar  
     6     5     7 ar  
     7     6    10 ar  
     8     6    21 1   
     9     7     8 ar  
    10     7    22 1   
    11     8     9 ar  
    12     8    23 1   
    13     9    10 ar  
    14     9    24 1   
    15    10    11 1   
    16    11    12 1   
    17    11    14 2   
    18    12    13 1   
    19    12    25 1   
    20    13    26 1   
    21    14    15 1   
    22    15    16 ar  
    23    15    20 ar  
    24    16    17 ar  
    25    16    27 1   
    26    17    18 ar  
    27    17    28 1   
    28    18    19 ar  
    29    18    29 1   
    30    19    20 ar  
    31    19    30 1   
    32    20    31 1   
@<TRIPOS>SUBSTRUCTURE
     1 4OB         1 TEMP              0 ****  ****    0 ROOT
