@<TRIPOS>MOLECULE
4OD
   31    32     1     0     0
SMALL
abcg2


@<TRIPOS>ATOM
      1 FAC         -4.9260    -0.3250    -1.1340 f          1 4OD      -0.105667
      2 CAV         -4.4490     0.7690    -0.5330 c3         1 4OD       0.370300
      3 FAD         -4.3690     1.7240    -1.4670 f          1 4OD      -0.105667
      4 FAE         -5.3690     1.1520     0.3590 f          1 4OD      -0.105667
      5 CAU         -3.1150     0.5160     0.1050 ca         1 4OD      -0.255300
      6 CAM         -2.4620    -0.7010    -0.0360 ca         1 4OD      -0.014000
      7 CAR         -2.4870     1.5180     0.8320 ca         1 4OD       0.242000
      8 FAB         -3.0970     2.6970     0.9770 f          1 4OD      -0.152000
      9 CAJ         -1.2490     1.3370     1.4140 ca         1 4OD      -0.161000
     10 CAK         -0.6080     0.1230     1.2530 ca         1 4OD      -0.018000
     11 CAT         -1.2080    -0.9010     0.5270 ca         1 4OD      -0.229900
     12 CAP         -0.4980    -2.1940     0.3320 ce         1 4OD       0.723800
     13 NAO         -1.2330    -3.2540     0.7150 nu         1 4OD      -0.711900
     14 OAA         -0.7870    -4.5210     0.5190 oh         1 4OD      -0.352300
     15 NAN          0.6920    -2.3450    -0.1150 nf         1 4OD      -0.666100
     16 CAS          1.3900    -1.2890    -0.6830 ca         1 4OD       0.172400
     17 CAL          2.6850    -1.0260    -0.2270 ca         1 4OD      -0.097000
     18 CAQ          3.4220    -0.0080    -0.8070 ca         1 4OD      -0.004900
     19 BRF          5.1670     0.3380    -0.1610 br         1 4OD      -0.103100
     20 CAH          2.9240     0.7610    -1.8490 ca         1 4OD      -0.101000
     21 CAG          1.6440     0.4800    -2.3090 ca         1 4OD      -0.094000
     22 CAI          0.8830    -0.5290    -1.7430 ca         1 4OD      -0.132000
     23 H1          -2.9200    -1.4950    -0.6110 ha         1 4OD       0.147000
     24 H2          -0.7950     2.1370     1.9810 ha         1 4OD       0.148000
     25 H3           0.3640    -0.0250     1.7030 ha         1 4OD       0.138000
     26 H4          -2.0710    -3.1610     1.2700 hn         1 4OD       0.527000
     27 H5          -0.1380    -4.7010     1.2140 ho         1 4OD       0.437000
     28 H6           3.0880    -1.6210     0.5820 ha         1 4OD       0.136000
     29 H7           3.5110     1.5490    -2.2990 ha         1 4OD       0.131000
     30 H8           1.2380     1.0590    -3.1290 ha         1 4OD       0.118000
     31 H9          -0.1040    -0.7410    -2.1310 ha         1 4OD       0.120000
@<TRIPOS>BOND
     1     1     2 1   
     2     2     3 1   
     3     2     4 1   
     4     2     5 1   
     5     5     6 ar  
     6     5     7 ar  
     7     6    11 ar  
     8     6    23 1   
     9     7     8 1   
    10     7     9 ar  
    11     9    10 ar  
    12     9    24 1   
    13    10    11 ar  
    14    10    25 1   
    15    11    12 1   
    16    12    13 1   
    17    12    15 2   
    18    13    14 1   
    19    13    26 1   
    20    14    27 1   
    21    15    16 1   
    22    16    17 ar  
    23    16    22 ar  
    24    17    18 ar  
    25    17    28 1   
    26    18    19 1   
    27    18    20 ar  
    28    20    21 ar  
    29    20    29 1   
    30    21    22 ar  
    31    21    30 1   
    32    22    31 1   
@<TRIPOS>SUBSTRUCTURE
     1 4OD         1 TEMP              0 ****  ****    0 ROOT
