@<TRIPOS>MOLECULE
4OD
   31    32     1     0     0
SMALL
No Charge or Current Charge


@<TRIPOS>ATOM
      1 FAC         -5.1780    -0.0370    -0.9830 f          1 4OD      -0.105667
      2 CAV         -4.6910     0.9510    -0.1970 c3         1 4OD       0.370300
      3 FAD         -4.7090     2.0790    -0.9420 f          1 4OD      -0.105667
      4 FAE         -5.5840     1.1210     0.8040 f          1 4OD      -0.105667
      5 CAU         -3.2880     0.6520     0.3430 ca         1 4OD      -0.255300
      6 CAM         -2.6110    -0.5430     0.0080 ca         1 4OD      -0.014000
      7 CAR         -2.6460     1.5840     1.1830 ca         1 4OD       0.242000
      8 FAB         -3.2590     2.7400     1.5240 f          1 4OD      -0.152000
      9 CAJ         -1.3580     1.3340     1.6730 ca         1 4OD      -0.161000
     10 CAK         -0.6910     0.1470     1.3370 ca         1 4OD      -0.018000
     11 CAT         -1.3190    -0.8120     0.5140 ca         1 4OD      -0.229900
     12 CAP         -0.6030    -2.0590     0.1080 ce         1 4OD       0.723800
     13 NAO         -1.3490    -3.2530     0.0810 nu         1 4OD      -0.711900
     14 OAA         -0.6280    -4.5460     0.0360 oh         1 4OD      -0.352300
     15 NAN          0.6960    -2.1750     0.1040 nf         1 4OD      -0.666100
     16 CAS          1.5310    -1.3060    -0.6330 ca         1 4OD       0.172400
     17 CAL          2.5600    -0.6050     0.0190 ca         1 4OD      -0.097000
     18 CAQ          3.3870     0.2680    -0.7090 ca         1 4OD      -0.004900
     19 BrF          4.7800     1.2260     0.1840 br         1 4OD      -0.103100
     20 CAH          3.1930     0.4380    -2.0900 ca         1 4OD      -0.101000
     21 CAG          2.1700    -0.2690    -2.7460 ca         1 4OD      -0.094000
     22 CAI          1.3410    -1.1410    -2.0180 ca         1 4OD      -0.132000
     23 H1          -3.0790    -1.2670    -0.6580 ha         1 4OD       0.147000
     24 H2          -0.8750     2.0670     2.3150 ha         1 4OD       0.148000
     25 H3           0.3080    -0.0290     1.7320 ha         1 4OD       0.138000
     26 H4          -2.1500    -3.2720     0.7210 hn         1 4OD       0.527000
     27 H5           0.0550    -4.5170     0.7510 ho         1 4OD       0.437000
     28 H6           2.7150    -0.7370     1.0860 ha         1 4OD       0.136000
     29 H7           3.8340     1.1140    -2.6520 ha         1 4OD       0.131000
     30 H8           2.0200    -0.1410    -3.8160 ha         1 4OD       0.118000
     31 H9           0.5530    -1.6880    -2.5300 ha         1 4OD       0.120000
@<TRIPOS>BOND
     1     1     2 1   
     2     2     3 1   
     3     2     4 1   
     4     2     5 1   
     5     5     6 ar  
     6     5     7 ar  
     7     6    11 ar  
     8     6    23 1   
     9     7     8 1   
    10     7     9 ar  
    11     9    10 ar  
    12     9    24 1   
    13    10    11 ar  
    14    10    25 1   
    15    11    12 1   
    16    12    13 1   
    17    12    15 2   
    18    13    14 1   
    19    13    26 1   
    20    14    27 1   
    21    15    16 1   
    22    16    17 ar  
    23    16    22 ar  
    24    17    18 ar  
    25    17    28 1   
    26    18    19 1   
    27    18    20 ar  
    28    20    21 ar  
    29    20    29 1   
    30    21    22 ar  
    31    21    30 1   
    32    22    31 1   
@<TRIPOS>SUBSTRUCTURE
     1 4OD         1 TEMP              0 ****  ****    0 ROOT
