@<TRIPOS>MOLECULE
4OE
   32    34     1     0     0
SMALL
No Charge or Current Charge


@<TRIPOS>ATOM
      1 FAC          4.2780     1.2530     1.1850 f          1 4OE      -0.109000
      2 CAW          4.1430     0.1280     0.4440 c3         1 4OE       0.369300
      3 FAD          5.0860     0.1890    -0.5230 f          1 4OE      -0.109000
      4 FAE          4.4670    -0.9060     1.2530 f          1 4OE      -0.109000
      5 CAU          2.7380    -0.0360    -0.1470 ca         1 4OE      -0.245300
      6 CAM          1.7240     0.9230     0.0890 ca         1 4OE      -0.033000
      7 CAQ          2.4360    -1.1580    -0.9440 ca         1 4OE       0.219000
      8 FAB          3.3760    -2.0970    -1.1970 f          1 4OE      -0.160000
      9 CAH          1.1610    -1.3120    -1.5040 ca         1 4OE      -0.159000
     10 CAK          0.1630    -0.3550    -1.2630 ca         1 4OE      -0.050000
     11 CAS          0.4250     0.7590    -0.4390 ca         1 4OE      -0.012000
     12 CAT         -0.5920     1.7960    -0.2060 cc         1 4OE      -0.156000
     13 CAL         -0.3830     3.1520     0.0970 cc         1 4OE       0.254900
     14 NAN         -1.4880     3.8450     0.2650 nd         1 4OE      -0.506800
     15 NAO         -2.4730     2.8730     0.0940 na         1 4OE       0.006800
     16 CAV         -1.9520     1.5880    -0.1440 cd         1 4OE      -0.074000
     17 CAR         -2.7620     0.3540    -0.0270 ca         1 4OE      -0.057000
     18 CAI         -2.2350    -0.8400     0.5180 ca         1 4OE      -0.066000
     19 CAF         -3.0370    -1.9880     0.6410 ca         1 4OE      -0.152500
     20 CAP         -4.3780    -1.9510     0.2370 ca         1 4OE       0.185000
     21 FAA         -5.1490    -3.0540     0.3580 f          1 4OE      -0.171000
     22 CAG         -4.9260    -0.7680    -0.2770 ca         1 4OE      -0.152500
     23 CAJ         -4.1250     0.3810    -0.3990 ca         1 4OE      -0.066000
     24 H1           1.9340     1.7960     0.7030 ha         1 4OE       0.138000
     25 H2           0.9500    -2.1720    -2.1350 ha         1 4OE       0.140000
     26 H3          -0.8070    -0.4720    -1.7390 ha         1 4OE       0.128000
     27 H4           0.5650     3.6680     0.1740 h4         1 4OE       0.044100
     28 H6          -1.2140    -0.8760     0.8870 ha         1 4OE       0.125500
     29 H7          -2.6240    -2.9010     1.0610 ha         1 4OE       0.138500
     30 H8          -5.9700    -0.7430    -0.5800 ha         1 4OE       0.138500
     31 H9          -4.5650     1.2880    -0.8080 ha         1 4OE       0.125500
     32 H5          -3.4590     3.1010     0.2130 hn         1 4OE       0.376000
@<TRIPOS>BOND
     1     1     2 1   
     2     2     3 1   
     3     2     4 1   
     4     2     5 1   
     5     5     6 ar  
     6     5     7 ar  
     7     6    11 ar  
     8     6    24 1   
     9     7     8 1   
    10     7     9 ar  
    11     9    10 ar  
    12     9    25 1   
    13    10    11 ar  
    14    10    26 1   
    15    11    12 1   
    16    12    13 1   
    17    12    16 2   
    18    13    14 2   
    19    13    27 1   
    20    14    15 1   
    21    15    16 1   
    22    15    32 1   
    23    16    17 1   
    24    17    18 ar  
    25    17    23 ar  
    26    18    19 ar  
    27    18    28 1   
    28    19    20 ar  
    29    19    29 1   
    30    20    21 1   
    31    20    22 ar  
    32    22    23 ar  
    33    22    30 1   
    34    23    31 1   
@<TRIPOS>SUBSTRUCTURE
     1 4OE         1 TEMP              0 ****  ****    0 ROOT
