@<TRIPOS>MOLECULE
4OE
   32    34     1     0     0
SMALL
bcc


@<TRIPOS>ATOM
      1 FAC          4.1620     1.0910     1.2770 f          1 4OE      -0.230300
      2 CAW          4.0660     0.0480     0.4510 c3         1 4OE       0.733200
      3 FAD          5.0300     0.1890    -0.4690 f          1 4OE      -0.230300
      4 FAE          4.3690    -1.0440     1.1650 f          1 4OE      -0.230300
      5 CAU          2.7090    -0.0530    -0.1740 ca         1 4OE      -0.245300
      6 CAM          1.7070     0.8630     0.1180 ca         1 4OE      -0.051000
      7 CAQ          2.4260    -1.0830    -1.0580 ca         1 4OE       0.183900
      8 FAB          3.3780    -1.9770    -1.3490 f          1 4OE      -0.124900
      9 CAH          1.1880    -1.2110    -1.6510 ca         1 4OE      -0.177000
     10 CAK          0.2050    -0.2820    -1.3560 ca         1 4OE      -0.068000
     11 CAS          0.4450     0.7630    -0.4640 ca         1 4OE      -0.012000
     12 CAT         -0.5840     1.7580    -0.1590 cc         1 4OE      -0.221300
     13 CAL         -0.4110     3.1530    -0.0650 cc         1 4OE       0.320200
     14 NAN         -1.5510     3.7710     0.1710 nd         1 4OE      -0.506800
     15 NAO         -2.4550     2.8030     0.2330 na         1 4OE       0.006400
     16 CAV         -1.9430     1.5710     0.0490 cd         1 4OE      -0.023300
     17 CAR         -2.7670     0.3650     0.1140 ca         1 4OE      -0.057000
     18 CAI         -2.3120    -0.7620     0.8000 ca         1 4OE      -0.084000
     19 CAF         -3.0850    -1.9080     0.8770 ca         1 4OE      -0.170500
     20 CAP         -4.3260    -1.9120     0.2660 ca         1 4OE       0.149900
     21 FAA         -5.0810    -3.0170     0.3410 f          1 4OE      -0.135900
     22 CAG         -4.8120    -0.8140    -0.4160 ca         1 4OE      -0.170500
     23 CAJ         -4.0240     0.3240    -0.4910 ca         1 4OE      -0.084000
     24 H1           1.8970     1.6640     0.8190 ha         1 4OE       0.156000
     25 H2           1.0010    -2.0210    -2.3440 ha         1 4OE       0.158000
     26 H3          -0.7590    -0.3710    -1.8390 ha         1 4OE       0.146000
     27 H4           0.5040     3.7150    -0.1870 h4         1 4OE       0.044100
     28 H6          -1.3490    -0.7430     1.2930 ha         1 4OE       0.143500
     29 H7          -2.7330    -2.7790     1.4130 ha         1 4OE       0.156500
     30 H8          -5.7840    -0.8460    -0.8890 ha         1 4OE       0.156500
     31 H9          -4.3920     1.1790    -1.0420 ha         1 4OE       0.143500
     32 H5          -3.4130     3.0300     0.4530 hn         1 4OE       0.325700
@<TRIPOS>BOND
     1     1     2 1   
     2     2     3 1   
     3     2     4 1   
     4     2     5 1   
     5     5     6 ar  
     6     5     7 ar  
     7     6    11 ar  
     8     6    24 1   
     9     7     8 1   
    10     7     9 ar  
    11     9    10 ar  
    12     9    25 1   
    13    10    11 ar  
    14    10    26 1   
    15    11    12 1   
    16    12    13 1   
    17    12    16 2   
    18    13    14 2   
    19    13    27 1   
    20    14    15 1   
    21    15    16 1   
    22    15    32 1   
    23    16    17 1   
    24    17    18 ar  
    25    17    23 ar  
    26    18    19 ar  
    27    18    28 1   
    28    19    20 ar  
    29    19    29 1   
    30    20    21 1   
    31    20    22 ar  
    32    22    23 ar  
    33    22    30 1   
    34    23    31 1   
@<TRIPOS>SUBSTRUCTURE
     1 4OE         1 TEMP              0 ****  ****    0 ROOT
