@<TRIPOS>MOLECULE
4OG
   25    26     1     0     0
SMALL
No Charge or Current Charge


@<TRIPOS>ATOM
      1 C4          -2.4300    -0.2890     0.0180 ca         1 4OG      -0.151000
      2 C5          -2.3290     2.4700    -0.3820 ca         1 4OG      -0.136000
      3 C6          -3.5530     1.8530    -0.0490 ca         1 4OG      -0.116000
      4 C7          -3.6080     0.4610     0.1530 ca         1 4OG      -0.096000
      5 C8          -1.1570     1.6980    -0.5130 ca         1 4OG      -0.046000
      6 C9          -1.2240     0.3060    -0.3080 ca         1 4OG      -0.045800
      7 N            1.8400     1.2080     1.1960 n8         1 4OG      -0.994200
      8 CA           2.2390    -0.0390     0.4400 c3         1 4OG       0.017500
      9 CB           1.3060    -0.3000    -0.7750 c3         1 4OG      -0.009200
     10 C1          -0.1220    -0.6390    -0.4110 cc         1 4OG      -0.009400
     11 C2          -0.5750    -1.9260    -0.1520 cd         1 4OG      -0.170400
     12 S3          -2.3150    -2.0410     0.2310 ss         1 4OG      -0.027600
     13 C            3.7510    -0.1070    -0.0210 c          1 4OG       0.691000
     14 O1           4.2120     0.8380    -0.6490 o          1 4OG      -0.732000
     15 O2           4.4310    -1.0510     0.3580 o          1 4OG      -0.732000
     16 H1          -2.2880     3.5460    -0.5370 ha         1 4OG       0.102000
     17 H2          -4.4550     2.4530     0.0510 ha         1 4OG       0.096000
     18 H3          -4.5480    -0.0230     0.4090 ha         1 4OG       0.105000
     19 H4          -0.2160     2.1790    -0.7670 ha         1 4OG       0.128000
     20 H8           2.0970    -0.8810     1.1320 h1         1 4OG       0.043700
     21 H9           1.3360     0.5600    -1.4540 hc         1 4OG       0.053200
     22 H10          1.7210    -1.1380    -1.3490 hc         1 4OG       0.053200
     23 H11          0.0190    -2.8330    -0.1620 h4         1 4OG       0.215000
     24 H5           2.4280     1.2930     2.0340 hn         1 4OG       0.381500
     25 H6           2.1150     2.0240     0.6370 hn         1 4OG       0.381500
@<TRIPOS>BOND
     1     1     4 ar  
     2     1     6 ar  
     3     1    12 1   
     4     2     3 ar  
     5     2     5 ar  
     6     2    16 1   
     7     3     4 ar  
     8     3    17 1   
     9     4    18 1   
    10     5     6 ar  
    11     5    19 1   
    12     6    10 1   
    13     7     8 1   
    14     7    24 1   
    15     7    25 1   
    16     8     9 1   
    17     8    13 1   
    18     8    20 1   
    19     9    10 1   
    20     9    21 1   
    21     9    22 1   
    22    10    11 2   
    23    11    12 1   
    24    11    23 1   
    25    13    14 1   
    26    13    15 1   
@<TRIPOS>SUBSTRUCTURE
     1 4OG         1 TEMP              0 ****  ****    0 ROOT
