@<TRIPOS>MOLECULE
4OG
   25    26     1     0     0
SMALL
bcc


@<TRIPOS>ATOM
      1 C4          -2.3880    -0.2470     0.0850 ca         1 4OG      -0.024100
      2 C5          -2.2490     2.4440    -0.4920 ca         1 4OG      -0.154000
      3 C6          -3.4630     1.8710    -0.0920 ca         1 4OG      -0.134000
      4 C7          -3.5440     0.5230     0.1990 ca         1 4OG      -0.114000
      5 C8          -1.1070     1.6770    -0.5980 ca         1 4OG      -0.064000
      6 C9          -1.1590     0.3080    -0.3090 ca         1 4OG      -0.045800
      7 N            1.6890     1.0140     1.2320 n8         1 4OG      -0.883800
      8 CA           2.2250    -0.0870     0.4530 c3         1 4OG       0.017500
      9 CB           1.3150    -0.3830    -0.7490 c3         1 4OG      -0.009200
     10 C1          -0.1030    -0.6730    -0.3690 cc         1 4OG      -0.009400
     11 C2          -0.5570    -1.9020    -0.0320 cd         1 4OG      -0.120400
     12 S3          -2.2390    -1.9480     0.3810 ss         1 4OG      -0.154500
     13 C            3.6820     0.0860    -0.0500 c          1 4OG       0.901600
     14 O1           4.2230     1.1970     0.1130 o          1 4OG      -0.837300
     15 O2           4.1920    -0.9170    -0.5920 o          1 4OG      -0.837300
     16 H1          -2.2080     3.5020    -0.7160 ha         1 4OG       0.120000
     17 H2          -4.3480     2.4890    -0.0130 ha         1 4OG       0.114000
     18 H3          -4.4810     0.0770     0.5060 ha         1 4OG       0.123000
     19 H4          -0.1750     2.1320    -0.9100 ha         1 4OG       0.146000
     20 H8           2.2050    -0.9790     1.0920 h1         1 4OG       0.043700
     21 H9           1.3480     0.4630    -1.4430 hc         1 4OG       0.053200
     22 H10          1.7290    -1.2360    -1.2860 hc         1 4OG       0.053200
     23 H11          0.0170    -2.8180    -0.0030 h4         1 4OG       0.165000
     24 H5           2.2880     1.1610     2.0350 hn         1 4OG       0.326300
     25 H6           1.7830     1.8670     0.6920 hn         1 4OG       0.326300
@<TRIPOS>BOND
     1     1     4 ar  
     2     1     6 ar  
     3     1    12 1   
     4     2     3 ar  
     5     2     5 ar  
     6     2    16 1   
     7     3     4 ar  
     8     3    17 1   
     9     4    18 1   
    10     5     6 ar  
    11     5    19 1   
    12     6    10 1   
    13     7     8 1   
    14     7    24 1   
    15     7    25 1   
    16     8     9 1   
    17     8    13 1   
    18     8    20 1   
    19     9    10 1   
    20     9    21 1   
    21     9    22 1   
    22    10    11 2   
    23    11    12 1   
    24    11    23 1   
    25    13    14 1   
    26    13    15 1   
@<TRIPOS>SUBSTRUCTURE
     1 4OG         1 TEMP              0 ****  ****    0 ROOT
