@<TRIPOS>MOLECULE
4OH
   46    49     1     0     0
SMALL
No Charge or Current Charge


@<TRIPOS>ATOM
      1 CAA         -0.0800    -0.5910    -0.1370 c6         1 4OH      -0.041700
      2 CAB         -1.5760    -0.2960     0.2340 c5         1 4OH      -0.067700
      3 CAC          0.8270     0.3670     0.6680 c6         1 4OH      -0.005400
      4 CAD          0.3970    -2.0420     0.1320 c6         1 4OH      -0.067400
      5 CAE         -2.1170     1.1270    -0.2130 c5         1 4OH      -0.037000
      6 CAF         -2.6630    -1.2950    -0.3170 c5         1 4OH       0.145300
      7 CAG          2.3090     0.1770     0.3350 ca         1 4OH      -0.102300
      8 CAH          0.0910     2.3640     0.3570 c6         1 4OH      -0.071400
      9 CAI          1.8430    -2.2570    -0.3900 c6         1 4OH      -0.035100
     10 CAJ         -3.5970     0.9160     0.2580 c5         1 4OH       0.148300
     11 CAK         -1.4390     2.3120     0.5600 c6         1 4OH      -0.058400
     12 CAL         -1.9870     1.4100    -1.7540 c3         1 4OH      -0.079100
     13 CAM         -3.9730    -0.4310    -0.4360 c5         1 4OH       0.091300
     14 OAN         -2.8750    -2.3960     0.5850 oh         1 4OH      -0.721000
     15 CAO          2.7890    -1.0700    -0.1350 ca         1 4OH      -0.034300
     16 CAP          3.2090     1.2390     0.5400 ca         1 4OH      -0.069000
     17 OAQ         -4.4900     1.9760    -0.0990 oh         1 4OH      -0.708000
     18 OAR         -5.0800    -1.0860     0.1860 oh         1 4OH      -0.654000
     19 CAS          4.1610    -1.2230    -0.4110 ca         1 4OH      -0.150000
     20 CAT          4.5770     1.0740     0.2650 ca         1 4OH      -0.207000
     21 CAU          5.0500    -0.1570    -0.2120 ca         1 4OH       0.138100
     22 OAV          6.3750    -0.3210    -0.4810 oh         1 4OH      -0.535100
     23 HAA          0.0570    -0.3930    -1.2080 hc         1 4OH       0.054700
     24 HAB         -1.5800    -0.3460     1.3300 hc         1 4OH       0.062700
     25 HAC          0.7060     0.1440     1.7370 hc         1 4OH       0.053700
     26 HAD          0.3600    -2.2470     1.2100 hc         1 4OH       0.049200
     27 HADA        -0.2600    -2.7720    -0.3580 hc         1 4OH       0.049200
     28 HAF         -2.3770    -1.6650    -1.3120 h1         1 4OH       0.046700
     29 HAH          0.5510     3.0620     1.0680 hc         1 4OH       0.043700
     30 HAHA         0.3480     2.7140    -0.6510 hc         1 4OH       0.043700
     31 HAI          2.2600    -3.1700     0.0550 hc         1 4OH       0.050200
     32 HAIA         1.8050    -2.4390    -1.4730 hc         1 4OH       0.050200
     33 HAJ         -3.6220     0.7850     1.3500 h1         1 4OH       0.032700
     34 HAK         -1.8870     3.2710     0.2620 hc         1 4OH       0.047700
     35 HAKA        -1.6420     2.2040     1.6340 hc         1 4OH       0.047700
     36 HAL         -2.4020     0.6110    -2.3770 hc         1 4OH       0.038700
     37 HALA        -2.5030     2.3370    -2.0290 hc         1 4OH       0.038700
     38 HALB        -0.9440     1.5220    -2.0690 hc         1 4OH       0.038700
     39 HAM         -4.2030    -0.2570    -1.4970 h1         1 4OH       0.085700
     40 HOAN        -2.0350    -2.9080     0.6240 ho         1 4OH       0.511000
     41 HAP          2.8500     2.1920     0.9190 ha         1 4OH       0.110000
     42 HOAQ        -5.3970     1.6280     0.0660 ho         1 4OH       0.512000
     43 HOAR        -4.6380    -1.8620     0.6160 ho         1 4OH       0.451000
     44 HAS          4.5380    -2.1720    -0.7830 ha         1 4OH       0.125000
     45 HAT          5.2610     1.9040     0.4260 ha         1 4OH       0.112000
     46 HOAV         6.8360     0.5220    -0.2840 ho         1 4OH       0.463000
@<TRIPOS>BOND
     1     1     2 1   
     2     1     3 1   
     3     1     4 1   
     4     1    23 1   
     5     2     5 1   
     6     2     6 1   
     7     2    24 1   
     8     3     7 1   
     9     3     8 1   
    10     3    25 1   
    11     4     9 1   
    12     4    26 1   
    13     4    27 1   
    14     5    10 1   
    15     5    11 1   
    16     5    12 1   
    17     6    13 1   
    18     6    14 1   
    19     6    28 1   
    20     7    15 ar  
    21     7    16 ar  
    22     8    11 1   
    23     8    29 1   
    24     8    30 1   
    25     9    15 1   
    26     9    31 1   
    27     9    32 1   
    28    10    13 1   
    29    10    17 1   
    30    10    33 1   
    31    11    34 1   
    32    11    35 1   
    33    12    36 1   
    34    12    37 1   
    35    12    38 1   
    36    13    18 1   
    37    13    39 1   
    38    14    40 1   
    39    15    19 ar  
    40    16    20 ar  
    41    16    41 1   
    42    17    42 1   
    43    18    43 1   
    44    19    21 ar  
    45    19    44 1   
    46    20    21 ar  
    47    20    45 1   
    48    21    22 1   
    49    22    46 1   
@<TRIPOS>SUBSTRUCTURE
     1 4OH         1 TEMP              0 ****  ****    0 ROOT
