@<TRIPOS>MOLECULE
4OH
   46    49     1     0     0
SMALL
abcg2


@<TRIPOS>ATOM
      1 CAA         -0.0930    -0.5630    -0.1930 c6         1 4OH      -0.041700
      2 CAB         -1.5540    -0.3620     0.1780 c5         1 4OH      -0.067700
      3 CAC          0.7410     0.4860     0.5650 c6         1 4OH      -0.005400
      4 CAD          0.4530    -1.9480     0.1190 c6         1 4OH      -0.067400
      5 CAE         -2.0730     1.0320    -0.2080 c5         1 4OH      -0.037000
      6 CAF         -2.6120    -1.3340    -0.3360 c5         1 4OH       0.145300
      7 CAG          2.2260     0.3120     0.2990 ca         1 4OH      -0.102300
      8 CAH          0.2380     1.9130     0.3050 c6         1 4OH      -0.071400
      9 CAI          1.8550    -2.0880    -0.4510 c6         1 4OH      -0.035100
     10 CAJ         -3.5310     0.8810     0.2220 c5         1 4OH       0.148300
     11 CAK         -1.2630     2.0700     0.5610 c6         1 4OH      -0.058400
     12 CAL         -1.9850     1.3140    -1.7140 c3         1 4OH      -0.079100
     13 CAM         -3.9290    -0.4840    -0.3590 c5         1 4OH       0.091300
     14 OAN         -2.7010    -2.4430     0.5290 oh         1 4OH      -0.721000
     15 CAO          2.7450    -0.9080    -0.1550 ca         1 4OH      -0.034300
     16 CAP          3.1300     1.3450     0.5440 ca         1 4OH      -0.069000
     17 OAQ         -4.3320     1.9540    -0.1990 oh         1 4OH      -0.708000
     18 OAR         -5.0200    -1.0890     0.2870 oh         1 4OH      -0.654000
     19 CAS          4.1140    -1.0520    -0.3620 ca         1 4OH      -0.150000
     20 CAT          4.4940     1.2050     0.3410 ca         1 4OH      -0.207000
     21 CAU          4.9950    -0.0070    -0.1220 ca         1 4OH       0.138100
     22 OAV          6.3100    -0.2190    -0.3480 oh         1 4OH      -0.535100
     23 HAA          0.0240    -0.3960    -1.2720 hc         1 4OH       0.054700
     24 HAB         -1.6170    -0.4160     1.2770 hc         1 4OH       0.062700
     25 HAC          0.5760     0.2830     1.6350 hc         1 4OH       0.053700
     26 HAD          0.4630    -2.0990     1.2040 hc         1 4OH       0.049200
     27 HADA        -0.1830    -2.7290    -0.3000 hc         1 4OH       0.049200
     28 HAF         -2.3700    -1.6650    -1.3540 h1         1 4OH       0.046700
     29 HAH          0.7630     2.6200     0.9500 hc         1 4OH       0.043700
     30 HAHA         0.4840     2.2050    -0.7200 hc         1 4OH       0.043700
     31 HAI          2.3280    -3.0020    -0.0830 hc         1 4OH       0.050200
     32 HAIA         1.7880    -2.2080    -1.5380 hc         1 4OH       0.050200
     33 HAJ         -3.5470     0.7990     1.3230 h1         1 4OH       0.032700
     34 HAK         -1.5750     3.0840     0.2960 hc         1 4OH       0.047700
     35 HAKA        -1.4560     1.9520     1.6340 hc         1 4OH       0.047700
     36 HAL         -2.4940     0.5660    -2.3240 hc         1 4OH       0.038700
     37 HALA        -2.4330     2.2800    -1.9450 hc         1 4OH       0.038700
     38 HALB        -0.9530     1.3510    -2.0600 hc         1 4OH       0.038700
     39 HAM         -4.2530    -0.3390    -1.3940 h1         1 4OH       0.085700
     40 HOAN        -3.2130    -3.1310     0.0920 ho         1 4OH       0.511000
     41 HAP          2.7750     2.2990     0.9120 ha         1 4OH       0.110000
     42 HOAQ        -5.2330     1.7910     0.0980 ho         1 4OH       0.512000
     43 HOAR        -4.7240    -1.4000     1.1500 ho         1 4OH       0.451000
     44 HAS          4.5030    -2.0020    -0.7150 ha         1 4OH       0.125000
     45 HAT          5.1580     2.0380     0.5440 ha         1 4OH       0.112000
     46 HOAV         6.8170     0.5690    -0.1230 ho         1 4OH       0.463000
@<TRIPOS>BOND
     1     1     2 1   
     2     1     3 1   
     3     1     4 1   
     4     1    23 1   
     5     2     5 1   
     6     2     6 1   
     7     2    24 1   
     8     3     7 1   
     9     3     8 1   
    10     3    25 1   
    11     4     9 1   
    12     4    26 1   
    13     4    27 1   
    14     5    10 1   
    15     5    11 1   
    16     5    12 1   
    17     6    13 1   
    18     6    14 1   
    19     6    28 1   
    20     7    15 ar  
    21     7    16 ar  
    22     8    11 1   
    23     8    29 1   
    24     8    30 1   
    25     9    15 1   
    26     9    31 1   
    27     9    32 1   
    28    10    13 1   
    29    10    17 1   
    30    10    33 1   
    31    11    34 1   
    32    11    35 1   
    33    12    36 1   
    34    12    37 1   
    35    12    38 1   
    36    13    18 1   
    37    13    39 1   
    38    14    40 1   
    39    15    19 ar  
    40    16    20 ar  
    41    16    41 1   
    42    17    42 1   
    43    18    43 1   
    44    19    21 ar  
    45    19    44 1   
    46    20    21 ar  
    47    20    45 1   
    48    21    22 1   
    49    22    46 1   
@<TRIPOS>SUBSTRUCTURE
     1 4OH         1 TEMP              0 ****  ****    0 ROOT
