@<TRIPOS>MOLECULE
4OI
   29    31     1     0     0
SMALL
bcc


@<TRIPOS>ATOM
      1 C02         65.5810    82.4500    51.7660 c          1 4OI       0.705100
      2 C03         64.3380    82.6430    50.9500 cx         1 4OI      -0.208700
      3 C04         63.0040    82.3310    51.5620 cx         1 4OI      -0.105400
      4 C05         63.5760    81.4420    50.5010 cx         1 4OI      -0.051400
      5 C06         62.9770    81.4110    49.1400 ca         1 4OI      -0.173600
      6 C07         61.6590    81.0180    48.9320 ca         1 4OI      -0.085000
      7 C08         61.1620    80.9690    47.6390 ca         1 4OI      -0.247300
      8 C09         62.0070    81.3080    46.5920 ca         1 4OI       0.398200
      9 C11         63.7320    81.7220    48.0130 ca         1 4OI       0.408200
     10 C13         65.1290    84.6220    52.8250 cc         1 4OI      -0.148700
     11 C14         64.9720    85.7200    52.0080 cd         1 4OI      -0.135300
     12 C17         64.3740    84.9250    53.9740 cc         1 4OI       0.302200
     13 N10         63.2700    81.6740    46.7700 nb         1 4OI      -0.665000
     14 N12         65.9030    83.4770    52.5910 ns         1 4OI      -0.460100
     15 N15         64.1690    86.5610    52.6730 na         1 4OI       0.001400
     16 N16         63.7990    86.1070    53.8650 nd         1 4OI      -0.511800
     17 O01         66.2720    81.4490    51.6940 o          1 4OI      -0.589100
     18 H1          64.3740    83.4860    50.2680 hc         1 4OI       0.098700
     19 H2          62.1670    82.9690    51.3060 hc         1 4OI       0.079700
     20 H3          62.9840    81.9610    52.5800 hc         1 4OI       0.079700
     21 H4          63.9530    80.4820    50.8410 hc         1 4OI       0.109700
     22 H5          61.0290    80.7600    49.7740 ha         1 4OI       0.138000
     23 H6          60.1400    80.6730    47.4420 ha         1 4OI       0.142000
     24 H7          61.6470    81.2850    45.5690 h4         1 4OI       0.018100
     25 H8          64.7670    82.0310    48.1310 h4         1 4OI       0.023100
     26 H9          65.3500    85.9390    51.0220 h4         1 4OI       0.181000
     27 H10         64.2380    84.3210    54.8570 h4         1 4OI       0.044100
     28 H11         66.7240    83.3420    53.1650 hn         1 4OI       0.326500
     29 H12         63.8420    87.4600    52.3560 hn         1 4OI       0.326700
@<TRIPOS>BOND
     1     1     2 1   
     2     1    14 1   
     3     1    17 2   
     4     2     3 1   
     5     2     4 1   
     6     2    18 1   
     7     3     4 1   
     8     3    19 1   
     9     3    20 1   
    10     4     5 1   
    11     4    21 1   
    12     5     6 ar  
    13     5     9 ar  
    14     6     7 ar  
    15     6    22 1   
    16     7     8 ar  
    17     7    23 1   
    18     8    13 ar  
    19     8    24 1   
    20     9    13 ar  
    21     9    25 1   
    22    10    11 2   
    23    10    12 1   
    24    10    14 1   
    25    11    15 1   
    26    11    26 1   
    27    12    16 2   
    28    12    27 1   
    29    14    28 1   
    30    15    16 1   
    31    15    29 1   
@<TRIPOS>SUBSTRUCTURE
     1 4OI         1 TEMP              0 ****  ****    0 ROOT
