@<TRIPOS>MOLECULE
4OI
   29    31     1     0     0
SMALL
No Charge or Current Charge


@<TRIPOS>ATOM
      1 C02         65.4410    82.4950    51.7930 c          1 4OI       0.638100
      2 C03         64.2780    82.6990    50.8460 cx         1 4OI      -0.208700
      3 C04         62.8660    82.4730    51.3530 cx         1 4OI      -0.105400
      4 C05         63.4880    81.4840    50.3960 cx         1 4OI      -0.051400
      5 C06         63.0080    81.3490    48.9800 ca         1 4OI      -0.108300
      6 C07         61.6430    81.1690    48.6970 ca         1 4OI      -0.067000
      7 C08         61.2520    81.0430    47.3530 ca         1 4OI      -0.164000
      8 C09         62.2300    81.0960    46.3450 ca         1 4OI       0.332900
      9 C11         63.9200    81.3860    47.9040 ca         1 4OI       0.342900
     10 C13         65.0740    84.6560    53.0820 cc         1 4OI      -0.083400
     11 C14         64.1320    85.3480    52.3760 cd         1 4OI      -0.168000
     12 C17         65.3680    85.4450    54.2110 cc         1 4OI       0.236900
     13 N10         63.5470    81.2640    46.6070 nb         1 4OI      -0.665000
     14 N12         65.6810    83.4300    52.7850 ns         1 4OI      -0.393100
     15 N15         63.9020    86.5110    53.1260 na         1 4OI       0.001800
     16 N16         64.6840    86.5690    54.2800 nd         1 4OI      -0.511800
     17 O01         66.1660    81.5160    51.7030 o          1 4OI      -0.589100
     18 H1          64.4310    83.4740    50.1000 hc         1 4OI       0.098700
     19 H2          62.0820    83.1240    50.9740 hc         1 4OI       0.079700
     20 H3          62.7380    82.1640    52.3880 hc         1 4OI       0.079700
     21 H4          63.7720    80.5210    50.8190 hc         1 4OI       0.109700
     22 H5          60.9050    81.1280    49.4950 ha         1 4OI       0.120000
     23 H6          60.2070    80.9040    47.0900 ha         1 4OI       0.124000
     24 H7          61.9510    81.0000    45.2960 h4         1 4OI       0.018100
     25 H8          64.9860    81.5170    48.0860 h4         1 4OI       0.023100
     26 H9          63.6210    85.1540    51.4410 h4         1 4OI       0.163000
     27 H10         66.0770    85.2200    54.9970 h4         1 4OI       0.044100
     28 H11         66.4390    83.1380    53.3910 hn         1 4OI       0.326500
     29 H12         63.2510    87.2600    52.8890 hn         1 4OI       0.377000
@<TRIPOS>BOND
     1     1     2 1   
     2     1    14 1   
     3     1    17 2   
     4     2     3 1   
     5     2     4 1   
     6     2    18 1   
     7     3     4 1   
     8     3    19 1   
     9     3    20 1   
    10     4     5 1   
    11     4    21 1   
    12     5     6 ar  
    13     5     9 ar  
    14     6     7 ar  
    15     6    22 1   
    16     7     8 ar  
    17     7    23 1   
    18     8    13 ar  
    19     8    24 1   
    20     9    13 ar  
    21     9    25 1   
    22    10    11 2   
    23    10    12 1   
    24    10    14 1   
    25    11    15 1   
    26    11    26 1   
    27    12    16 2   
    28    12    27 1   
    29    14    28 1   
    30    15    16 1   
    31    15    29 1   
@<TRIPOS>SUBSTRUCTURE
     1 4OI         1 TEMP              0 ****  ****    0 ROOT
