@<TRIPOS>MOLECULE
4OJ
   19    19     1     0     0
SMALL
No Charge or Current Charge


@<TRIPOS>ATOM
      1 C1          -3.0060     0.7390    -0.0630 ca         1 4OJ      -0.107000
      2 C2          -3.3480    -0.6050    -0.2710 ca         1 4OJ      -0.228000
      3 C3          -2.3480    -1.5840    -0.3390 ca         1 4OJ      -0.108000
      4 C4          -0.9990    -1.2190    -0.1990 ca         1 4OJ      -0.186000
      5 C5          -0.6400     0.1320     0.0110 ca         1 4OJ       0.293100
      6 C6          -1.6560     1.1170     0.0790 ca         1 4OJ      -0.152300
      7 O12          0.6680     0.5370     0.1540 os         1 4OJ      -0.443500
      8 P13          2.0080    -0.3590     0.1200 p5         1 4OJ       1.256900
      9 O1P          2.1330    -1.0440    -1.1970 o          1 4OJ      -0.902167
     10 O2P          3.1880     0.5270     0.3210 o          1 4OJ      -0.902167
     11 C7          -1.3040     2.5840     0.3050 c3         1 4OJ      -0.022800
     12 O3P          1.9720    -1.3760     1.2090 o          1 4OJ      -0.902167
     13 H1          -3.7930     1.4880    -0.0120 ha         1 4OJ       0.059000
     14 H2          -4.3920    -0.8880    -0.3800 ha         1 4OJ       0.057000
     15 H3          -2.6150    -2.6260    -0.5010 ha         1 4OJ       0.062000
     16 H4          -0.2420    -1.9950    -0.2550 ha         1 4OJ       0.138000
     17 H71C        -0.7750     2.7200     1.2560 hc         1 4OJ       0.029367
     18 H72C        -0.6580     2.9610    -0.4960 hc         1 4OJ       0.029367
     19 H73C        -2.1980     3.2190     0.3330 hc         1 4OJ       0.029367
@<TRIPOS>BOND
     1     1     2 ar  
     2     1     6 ar  
     3     1    13 1   
     4     2     3 ar  
     5     2    14 1   
     6     3     4 ar  
     7     3    15 1   
     8     4     5 ar  
     9     4    16 1   
    10     5     6 ar  
    11     5     7 1   
    12     6    11 1   
    13     7     8 1   
    14     8     9 1   
    15     8    10 1   
    16     8    12 1   
    17    11    17 1   
    18    11    18 1   
    19    11    19 1   
@<TRIPOS>SUBSTRUCTURE
     1 4OJ         1 TEMP              0 ****  ****    0 ROOT
