@<TRIPOS>MOLECULE
4OJ
   19    19     1     0     0
SMALL
bcc


@<TRIPOS>ATOM
      1 C1          -2.8550     0.6860    -0.3120 ca         1 4OJ      -0.125000
      2 C2          -3.3170    -0.6250    -0.3440 ca         1 4OJ      -0.246000
      3 C3          -2.4610    -1.6530     0.0250 ca         1 4OJ      -0.126000
      4 C4          -1.1610    -1.3700     0.4210 ca         1 4OJ      -0.204000
      5 C5          -0.7000    -0.0530     0.4660 ca         1 4OJ       0.293100
      6 C6          -1.5550     0.9920     0.0780 ca         1 4OJ      -0.152300
      7 O12          0.5290     0.2380     0.9110 os         1 4OJ      -0.443500
      8 P13          1.9170    -0.0660    -0.1120 p5         1 4OJ       1.256900
      9 O1P          1.5950     0.6850    -1.3940 o          1 4OJ      -0.902167
     10 O2P          3.0070     0.5380     0.7550 o          1 4OJ      -0.902167
     11 C7          -1.0560     2.4060     0.0930 c3         1 4OJ      -0.022800
     12 O3P          1.9550    -1.5800    -0.2510 o          1 4OJ      -0.902167
     13 H1          -3.5180     1.4920    -0.6050 ha         1 4OJ       0.077000
     14 H2          -4.3330    -0.8380    -0.6520 ha         1 4OJ       0.075000
     15 H3          -2.8020    -2.6810     0.0020 ha         1 4OJ       0.080000
     16 H4          -0.4880    -2.1670     0.7070 ha         1 4OJ       0.156000
     17 H71C        -0.7710     2.7280     1.0960 hc         1 4OJ       0.029367
     18 H72C        -0.1710     2.5020    -0.5360 hc         1 4OJ       0.029367
     19 H73C        -1.8180     3.0950    -0.2720 hc         1 4OJ       0.029367
@<TRIPOS>BOND
     1     1     2 ar  
     2     1     6 ar  
     3     1    13 1   
     4     2     3 ar  
     5     2    14 1   
     6     3     4 ar  
     7     3    15 1   
     8     4     5 ar  
     9     4    16 1   
    10     5     6 ar  
    11     5     7 1   
    12     6    11 1   
    13     7     8 1   
    14     8     9 1   
    15     8    10 1   
    16     8    12 1   
    17    11    17 1   
    18    11    18 1   
    19    11    19 1   
@<TRIPOS>SUBSTRUCTURE
     1 4OJ         1 TEMP              0 ****  ****    0 ROOT
