@<TRIPOS>MOLECULE
4OK
   51    55     1     0     0
SMALL
No Charge or Current Charge


@<TRIPOS>ATOM
      1 C13          4.2000    -0.6600     0.4680 ca         1 4OK      -0.179600
      2 C18         -5.1290     1.2080     0.8460 ca         1 4OK       0.120000
      3 C17         -4.8590     2.4790     0.3020 ca         1 4OK       0.116000
      4 C16          0.0240    -2.7170    -0.1110 ca         1 4OK       0.052800
      5 C15          2.3460    -2.7020     0.0510 ca         1 4OK       0.013800
      6 C19          5.2320     0.4150     0.7230 c          1 4OK       0.623700
      7 C21          4.2670     2.0340    -0.9840 c6         1 4OK       0.060000
      8 C22          5.7740     2.8920     0.7990 c6         1 4OK       0.060000
      9 C23          5.2450     2.6270    -2.0340 c6         1 4OK       0.130600
     10 C24          6.7140     3.4380    -0.3060 c6         1 4OK       0.130600
     11 C11         -2.9120     0.4130     0.1370 cp         1 4OK      -0.012000
     12 C12         -1.8850    -0.6730     0.0510 cp         1 4OK      -0.092000
     13 C1          -2.6610     1.7000    -0.4020 ca         1 4OK      -0.098000
     14 C2           4.6250    -2.0120     0.3320 ca         1 4OK      -0.035000
     15 C3           3.6950    -3.0520     0.1140 ca         1 4OK      -0.142000
     16 C4          -3.6240     2.7210    -0.3210 ca         1 4OK      -0.094000
     17 C5          -0.5020    -0.3710     0.1850 ca         1 4OK      -0.011000
     18 C6           2.8120    -0.3540     0.4230 ca         1 4OK      -0.023000
     19 C7          -2.2730    -2.0320    -0.1670 ca         1 4OK      -0.036000
     20 C8          -4.1650     0.1890     0.7620 ca         1 4OK      -0.096000
     21 C9           0.4410    -1.4070     0.1020 cp         1 4OK      -0.102000
     22 C10          1.8950    -1.3980     0.2030 cp         1 4OK      -0.103000
     23 C14         -1.3230    -3.0870    -0.2530 ca         1 4OK      -0.187600
     24 N25          1.1990    -3.4850    -0.1400 na         1 4OK      -0.207600
     25 N26          4.9510     1.7410     0.3160 n          1 4OK      -0.412800
     26 N27         -3.0280    -4.8180    -0.6170 nt         1 4OK      -0.596000
     27 O28          6.2540     0.1550     1.3470 o          1 4OK      -0.595100
     28 O29         -0.9040    -5.4330    -0.5630 o          1 4OK      -0.637100
     29 O30          5.9460     3.7640    -1.4840 os         1 4OK      -0.444000
     30 Cl2         -6.6670     0.8670     1.6410 cl         1 4OK      -0.171000
     31 H1           3.4490     2.7470    -0.8070 h1         1 4OK       0.065200
     32 H2           3.8250     1.1260    -1.4130 h1         1 4OK       0.065200
     33 H3           6.3690     2.6070     1.6780 h1         1 4OK       0.065200
     34 H4           5.0990     3.6970     1.1220 h1         1 4OK       0.065200
     35 H5           5.9770     1.8640    -2.3380 h1         1 4OK       0.054200
     36 H6           4.6900     2.9430    -2.9280 h1         1 4OK       0.054200
     37 H7           7.2300     4.3400     0.0510 h1         1 4OK       0.054200
     38 H8           7.4740     2.6850    -0.5610 h1         1 4OK       0.054200
     39 H9          -1.7170     1.9060    -0.9000 ha         1 4OK       0.123000
     40 H10          5.6840    -2.2560     0.3870 ha         1 4OK       0.130000
     41 H11          4.0190    -4.0840     0.0020 ha         1 4OK       0.128000
     42 H12         -3.4140     3.7010    -0.7440 ha         1 4OK       0.133000
     43 H13         -0.1700     0.6480     0.3650 ha         1 4OK       0.122000
     44 H14          2.4500     0.6610     0.5710 ha         1 4OK       0.122000
     45 H15         -3.3310    -2.2500    -0.2840 ha         1 4OK       0.110000
     46 H16         -4.3870    -0.7790     1.2020 ha         1 4OK       0.132000
     47 H17          1.2030    -4.4900    -0.2810 hn         1 4OK       0.388000
     48 H18         -3.7210    -4.0880    -0.5590 hn         1 4OK       0.318000
     49 H19         -3.3030    -5.7750    -0.7730 hn         1 4OK       0.318000
     50 C20         -1.7180    -4.5270    -0.4870 c          1 4OK       0.632700
     51 Cl1         -6.0470     3.7810     0.3870 cl         1 4OK      -0.168000
@<TRIPOS>BOND
     1     1     6 1   
     2     1    14 ar  
     3     1    18 ar  
     4     2     3 ar  
     5     2    20 ar  
     6     2    30 1   
     7     3    16 ar  
     8     3    51 1   
     9     4    21 ar  
    10     4    23 ar  
    11     4    24 1   
    12     5    15 ar  
    13     5    22 ar  
    14     5    24 1   
    15     6    25 1   
    16     6    27 2   
    17     7     9 1   
    18     7    25 1   
    19     7    31 1   
    20     7    32 1   
    21     8    10 1   
    22     8    25 1   
    23     8    33 1   
    24     8    34 1   
    25     9    29 1   
    26     9    35 1   
    27     9    36 1   
    28    10    29 1   
    29    10    37 1   
    30    10    38 1   
    31    11    12 1   
    32    11    13 ar  
    33    11    20 ar  
    34    12    17 ar  
    35    12    19 ar  
    36    13    16 ar  
    37    13    39 1   
    38    14    15 ar  
    39    14    40 1   
    40    15    41 1   
    41    16    42 1   
    42    17    21 ar  
    43    17    43 1   
    44    18    22 ar  
    45    18    44 1   
    46    19    23 ar  
    47    19    45 1   
    48    20    46 1   
    49    21    22 1   
    50    23    50 1   
    51    24    47 1   
    52    26    48 1   
    53    26    49 1   
    54    26    50 1   
    55    28    50 2   
@<TRIPOS>SUBSTRUCTURE
     1 4OK         1 TEMP              0 ****  ****    0 ROOT
