@<TRIPOS>MOLECULE
4OK
   51    55     1     0     0
SMALL
abcg2


@<TRIPOS>ATOM
      1 C13          4.0890    -0.4950     0.5190 ca         1 4OK      -0.179600
      2 C18         -5.2170     1.0180     0.9310 ca         1 4OK       0.120000
      3 C17         -5.0230     2.2970     0.4230 ca         1 4OK       0.116000
      4 C16          0.0390    -2.5970    -0.0860 ca         1 4OK       0.052800
      5 C15          2.2680    -2.5290     0.0740 ca         1 4OK       0.013800
      6 C19          5.1110     0.5350     0.8740 c          1 4OK       0.623700
      7 C21          4.3960     1.9860    -1.0290 c6         1 4OK       0.060000
      8 C22          5.9080     2.8290     0.6610 c6         1 4OK       0.060000
      9 C23          5.4280     2.3980    -2.0700 c6         1 4OK       0.130600
     10 C24          6.8840     3.1970    -0.4420 c6         1 4OK       0.130600
     11 C11         -3.0020     0.3720     0.2150 cp         1 4OK      -0.012000
     12 C12         -1.9360    -0.6420     0.1080 cp         1 4OK      -0.092000
     13 C1          -2.8220     1.6590    -0.2930 ca         1 4OK      -0.098000
     14 C2           4.5130    -1.8260     0.3680 ca         1 4OK      -0.035000
     15 C3           3.6200    -2.8520     0.1280 ca         1 4OK      -0.142000
     16 C4          -3.8190     2.6120    -0.1890 ca         1 4OK      -0.094000
     17 C5          -0.5990    -0.2780     0.2410 ca         1 4OK      -0.011000
     18 C6           2.7380    -0.1850     0.4670 ca         1 4OK      -0.023000
     19 C7          -2.2570    -1.9840    -0.1320 ca         1 4OK      -0.036000
     20 C8          -4.2140     0.0680     0.8300 ca         1 4OK      -0.096000
     21 C9           0.3850    -1.2480     0.1460 cp         1 4OK      -0.102000
     22 C10          1.8210    -1.2060     0.2490 cp         1 4OK      -0.103000
     23 C14         -1.2980    -2.9830    -0.2480 ca         1 4OK      -0.187600
     24 N25          1.1830    -3.3380    -0.1290 na         1 4OK      -0.207600
     25 N26          5.0580     1.7280     0.2400 n          1 4OK      -0.412800
     26 N27         -2.8670    -4.6900    -0.9290 nt         1 4OK      -0.596000
     27 O28          5.9340     0.2870     1.7460 o          1 4OK      -0.595100
     28 O29         -0.7790    -5.2840    -0.3450 o          1 4OK      -0.637100
     29 O30          6.2070     3.4910    -1.6440 os         1 4OK      -0.444000
     30 CL2         -6.6970     0.5990     1.7060 cl         1 4OK      -0.171000
     31 H1           3.6510     2.7770    -0.9000 h1         1 4OK       0.065200
     32 H2           3.8830     1.0990    -1.3890 h1         1 4OK       0.065200
     33 H3           6.4470     2.5580     1.5650 h1         1 4OK       0.065200
     34 H4           5.2720     3.6890     0.8940 h1         1 4OK       0.065200
     35 H5           6.0670     1.5340    -2.3010 h1         1 4OK       0.054200
     36 H6           4.9190     2.6950    -2.9880 h1         1 4OK       0.054200
     37 H7           7.4480     4.0870    -0.1570 h1         1 4OK       0.054200
     38 H8           7.5980     2.3750    -0.5910 h1         1 4OK       0.054200
     39 H9          -1.9010     1.9240    -0.7960 ha         1 4OK       0.123000
     40 H10          5.5690    -2.0530     0.4290 ha         1 4OK       0.130000
     41 H11          3.9640    -3.8700    -0.0040 ha         1 4OK       0.128000
     42 H12         -3.6670     3.6030    -0.5940 ha         1 4OK       0.133000
     43 H13         -0.3280     0.7510     0.4440 ha         1 4OK       0.122000
     44 H14          2.3960     0.8330     0.6100 ha         1 4OK       0.122000
     45 H15         -3.3040    -2.2400    -0.2350 ha         1 4OK       0.110000
     46 H16         -4.3800    -0.9120     1.2580 ha         1 4OK       0.132000
     47 H17          1.1950    -4.3400    -0.2340 hn         1 4OK       0.388000
     48 H18         -3.5300    -3.9850    -1.1990 hn         1 4OK       0.318000
     49 H19         -3.1180    -5.6460    -1.1230 hn         1 4OK       0.318000
     50 C20         -1.6250    -4.4110    -0.5120 c          1 4OK       0.632700
     51 CL1         -6.2560     3.4910     0.5420 cl         1 4OK      -0.168000
@<TRIPOS>BOND
     1     1     6 1   
     2     1    14 ar  
     3     1    18 ar  
     4     2     3 ar  
     5     2    20 ar  
     6     2    30 1   
     7     3    16 ar  
     8     3    51 1   
     9     4    21 ar  
    10     4    23 ar  
    11     4    24 1   
    12     5    15 ar  
    13     5    22 ar  
    14     5    24 1   
    15     6    25 1   
    16     6    27 2   
    17     7     9 1   
    18     7    25 1   
    19     7    31 1   
    20     7    32 1   
    21     8    10 1   
    22     8    25 1   
    23     8    33 1   
    24     8    34 1   
    25     9    29 1   
    26     9    35 1   
    27     9    36 1   
    28    10    29 1   
    29    10    37 1   
    30    10    38 1   
    31    11    12 1   
    32    11    13 ar  
    33    11    20 ar  
    34    12    17 ar  
    35    12    19 ar  
    36    13    16 ar  
    37    13    39 1   
    38    14    15 ar  
    39    14    40 1   
    40    15    41 1   
    41    16    42 1   
    42    17    21 ar  
    43    17    43 1   
    44    18    22 ar  
    45    18    44 1   
    46    19    23 ar  
    47    19    45 1   
    48    20    46 1   
    49    21    22 1   
    50    23    50 1   
    51    24    47 1   
    52    26    48 1   
    53    26    49 1   
    54    26    50 1   
    55    28    50 2   
@<TRIPOS>SUBSTRUCTURE
     1 4OK         1 TEMP              0 ****  ****    0 ROOT
