@<TRIPOS>MOLECULE
4OL
   92    95     1     0     0
SMALL
No Charge or Current Charge


@<TRIPOS>ATOM
      1 C1           6.3570    -1.3110    -1.7890 c          1 4OL       0.615800
      2 C2           7.2100    -1.2150    -3.0470 cc         1 4OL       0.026400
      3 C6           8.8220     0.0160    -4.4540 cd         1 4OL      -0.081500
      4 C5           8.7510    -0.9890    -5.3870 cc         1 4OL      -0.309200
      5 C4           7.9210    -2.1830    -5.2310 c          1 4OL       0.534200
      6 C7           8.0320    -0.1000    -3.2600 cd         1 4OL      -0.287000
      7 C12          5.8040    -0.1550     0.3920 c3         1 4OL       0.104000
      8 C13          4.4010     0.4450     0.1780 c3         1 4OL      -0.120400
      9 C14          3.6260     0.6200     1.5020 c3         1 4OL       0.106500
     10 C16          2.1270     2.6740     1.5430 c          1 4OL       0.620800
     11 C17          1.2460     0.4920     0.6410 c3         1 4OL       0.100500
     12 C18          0.3120    -0.2210     1.6380 c3         1 4OL      -0.097400
     13 C23          3.1780     4.7040     2.4700 cc         1 4OL      -0.282000
     14 C24          3.9560     5.4580     3.4030 cc         1 4OL      -0.078500
     15 C25          4.4320     4.8280     4.5250 cd         1 4OL      -0.313700
     16 C26          4.1290     3.4240     4.8310 c          1 4OL       0.538200
     17 O55         -1.3820    -4.2590     0.7040 o          1 4OL      -0.562600
     18 C28         -2.5380    -3.9240     0.9490 c          1 4OL       0.620800
     19 C34         -3.6850    -4.8980     0.7850 cc         1 4OL       0.033400
     20 C39         -3.5630    -5.8630    -0.2110 cd         1 4OL      -0.282000
     21 C38         -4.6360    -6.7800    -0.4770 cd         1 4OL      -0.078500
     22 C37         -5.7690    -6.6970     0.3000 cc         1 4OL      -0.313700
     23 C36         -5.9200    -5.7680     1.4230 c          1 4OL       0.538200
     24 O47         -6.9160    -5.7620     2.1360 o          1 4OL      -0.569500
     25 N35         -4.8080    -4.9120     1.6390 n          1 4OL      -0.115500
     26 O46         -4.7920    -4.1940     2.8940 oh         1 4OL      -0.442600
     27 N21         -2.8040    -2.5750     1.3320 n          1 4OL      -0.394800
     28 C29         -4.1360    -1.9280     1.1440 c3         1 4OL       0.106500
     29 C30         -4.1170    -0.6040     0.3510 c3         1 4OL      -0.120400
     30 C31         -5.5320    -0.0610     0.0800 c3         1 4OL       0.104000
     31 N32         -5.4870     1.1940    -0.6720 ns         1 4OL      -0.501900
     32 C33         -6.6050     1.9170    -1.0530 c          1 4OL       0.615800
     33 O53         -7.7160     1.4960    -0.7540 o          1 4OL      -0.549600
     34 C40         -6.3250     3.1920    -1.8360 cc         1 4OL       0.026400
     35 N45         -7.3830     4.0510    -2.2220 n          1 4OL      -0.105000
     36 O50         -8.7480     3.7920    -1.8220 oh         1 4OL      -0.430600
     37 C44         -7.1800     5.2330    -2.9820 c          1 4OL       0.534200
     38 O51         -8.0950     5.9700    -3.3320 o          1 4OL      -0.570500
     39 C43         -5.7870     5.5140    -3.3250 cc         1 4OL      -0.309200
     40 C42         -4.7340     4.7130    -2.9550 cd         1 4OL      -0.081500
     41 C41         -5.0120     3.5260    -2.1960 cd         1 4OL      -0.287000
     42 C19         -0.7870    -1.0540     0.9440 c3         1 4OL      -0.097400
     43 N15          2.3000     1.2770     1.3320 n          1 4OL      -0.394800
     44 O54          1.3700     3.3080     0.8130 o          1 4OL      -0.562600
     45 C22          2.9100     3.3490     2.6560 cd         1 4OL       0.033400
     46 N27          3.3290     2.7490     3.8640 n          1 4OL      -0.115500
     47 O48          2.8210     1.4520     4.2540 oh         1 4OL      -0.442600
     48 N9           6.5410    -0.2920    -0.8680 ns         1 4OL      -0.501900
     49 O8           5.5460    -2.1970    -1.5490 o          1 4OL      -0.549600
     50 N3           7.1750    -2.2410    -4.0240 n          1 4OL      -0.105000
     51 O9           7.8800    -3.0610    -6.0860 o          1 4OL      -0.570500
     52 O10          6.4020    -3.4460    -3.8250 oh         1 4OL      -0.430600
     53 H1           9.4570     0.8860    -4.6210 ha         1 4OL       0.193000
     54 H2           9.3220    -0.9480    -6.3080 ha         1 4OL       0.217500
     55 H3           8.0950     0.7180    -2.5500 ha         1 4OL       0.206500
     56 H4           6.3820     0.4940     1.0640 h1         1 4OL       0.059200
     57 H5           5.7190    -1.1410     0.8690 h1         1 4OL       0.059200
     58 H6           4.5010     1.4220    -0.3090 hc         1 4OL       0.053200
     59 H7           3.8380    -0.2000    -0.5050 hc         1 4OL       0.053200
     60 H8           3.4750    -0.3630     1.9680 h1         1 4OL       0.062450
     61 H9           4.2670     1.2020     2.1710 h1         1 4OL       0.062450
     62 H10          1.7090    -0.2670    -0.0020 h1         1 4OL       0.060450
     63 H11          0.6510     1.1410    -0.0130 h1         1 4OL       0.060450
     64 H12          0.9100    -0.8750     2.2850 hc         1 4OL       0.052450
     65 H13         -0.1570     0.5300     2.2860 hc         1 4OL       0.052450
     66 H14         -2.1740    -1.0170     2.6100 h1         1 4OL       0.060450
     67 H15         -1.1150    -2.4260     2.5920 h1         1 4OL       0.060450
     68 H16          2.8340     5.2190     1.5750 ha         1 4OL       0.207500
     69 H17          4.1700     6.5090     3.2060 ha         1 4OL       0.194000
     70 H18          5.0330     5.3410     5.2660 ha         1 4OL       0.218500
     71 H19         -2.6710    -5.8960    -0.8330 ha         1 4OL       0.207500
     72 H20         -4.5600    -7.5130    -1.2800 ha         1 4OL       0.194000
     73 H21         -6.6140    -7.3580     0.1390 ha         1 4OL       0.218500
     74 H22         -4.4980    -4.8580     3.5590 ho         1 4OL       0.499000
     75 H23         -4.8050    -2.6070     0.6040 h1         1 4OL       0.062450
     76 H24         -4.5770    -1.7370     2.1310 h1         1 4OL       0.062450
     77 H25         -3.5540     0.1520     0.9110 hc         1 4OL       0.053200
     78 H26         -3.6060    -0.7650    -0.6050 hc         1 4OL       0.053200
     79 H27         -6.1070    -0.7990    -0.4950 h1         1 4OL       0.059200
     80 H28         -6.0490     0.1140     1.0330 h1         1 4OL       0.059200
     81 H29         -4.5840     1.5720    -0.9210 hn         1 4OL       0.322500
     82 H30         -9.1290     3.2700    -2.5640 ho         1 4OL       0.496500
     83 H31         -5.6320     6.4190    -3.9030 ha         1 4OL       0.217500
     84 H32         -3.7130     4.9700    -3.2370 ha         1 4OL       0.193000
     85 H33         -4.1620     2.9050    -1.9310 ha         1 4OL       0.206500
     86 H34         -1.3680    -0.3980     0.2890 hc         1 4OL       0.052450
     87 H35         -0.3130    -1.8030     0.2970 hc         1 4OL       0.052450
     88 H36          2.0510     1.6500     4.8340 ho         1 4OL       0.499000
     89 H37          7.2360     0.4070    -1.0890 hn         1 4OL       0.322500
     90 H38          5.5310    -3.2530    -4.2400 ho         1 4OL       0.496500
     91 O49          4.5170     2.8920     5.8650 o          1 4OL      -0.569500
     92 C20         -1.7190    -1.7700     1.9510 c3         1 4OL       0.100500
@<TRIPOS>BOND
     1     1     2 1   
     2     1    48 1   
     3     1    49 2   
     4     2     6 2   
     5     2    50 1   
     6     3     4 2   
     7     3     6 1   
     8     3    53 1   
     9     4     5 1   
    10     4    54 1   
    11     5    50 1   
    12     5    51 2   
    13     6    55 1   
    14     7     8 1   
    15     7    48 1   
    16     7    56 1   
    17     7    57 1   
    18     8     9 1   
    19     8    58 1   
    20     8    59 1   
    21     9    43 1   
    22     9    60 1   
    23     9    61 1   
    24    10    43 1   
    25    10    44 2   
    26    10    45 1   
    27    11    12 1   
    28    11    43 1   
    29    11    62 1   
    30    11    63 1   
    31    12    42 1   
    32    12    64 1   
    33    12    65 1   
    34    13    14 1   
    35    13    45 2   
    36    13    68 1   
    37    14    15 2   
    38    14    69 1   
    39    15    16 1   
    40    15    70 1   
    41    16    46 1   
    42    16    91 2   
    43    17    18 2   
    44    18    19 1   
    45    18    27 1   
    46    19    20 2   
    47    19    25 1   
    48    20    21 1   
    49    20    71 1   
    50    21    22 2   
    51    21    72 1   
    52    22    23 1   
    53    22    73 1   
    54    23    24 2   
    55    23    25 1   
    56    25    26 1   
    57    26    74 1   
    58    27    28 1   
    59    27    92 1   
    60    28    29 1   
    61    28    75 1   
    62    28    76 1   
    63    29    30 1   
    64    29    77 1   
    65    29    78 1   
    66    30    31 1   
    67    30    79 1   
    68    30    80 1   
    69    31    32 1   
    70    31    81 1   
    71    32    33 2   
    72    32    34 1   
    73    34    35 1   
    74    34    41 2   
    75    35    36 1   
    76    35    37 1   
    77    36    82 1   
    78    37    38 2   
    79    37    39 1   
    80    39    40 2   
    81    39    83 1   
    82    40    41 1   
    83    40    84 1   
    84    41    85 1   
    85    42    86 1   
    86    42    87 1   
    87    42    92 1   
    88    45    46 1   
    89    46    47 1   
    90    47    88 1   
    91    48    89 1   
    92    50    52 1   
    93    52    90 1   
    94    66    92 1   
    95    67    92 1   
@<TRIPOS>SUBSTRUCTURE
     1 4OL         1 TEMP              0 ****  ****    0 ROOT
