@<TRIPOS>MOLECULE
4OL
   92    95     1     0     0
SMALL
bcc


@<TRIPOS>ATOM
      1 C1           7.2870    -1.1070    -1.3430 c          1 4OL       0.682800
      2 C2           7.9420    -0.7760    -2.6560 cc         1 4OL       0.026400
      3 C6           9.0070     0.7100    -4.1890 cd         1 4OL      -0.031500
      4 C5           9.3320    -0.3310    -5.0080 cc         1 4OL      -0.259200
      5 C4           8.9560    -1.6670    -4.6830 c          1 4OL       0.676700
      6 C7           8.2970     0.4990    -2.9930 cd         1 4OL      -0.237000
      7 C12          5.4060    -0.5850     0.1120 c3         1 4OL       0.104000
      8 C13          4.2920     0.4460     0.1840 c3         1 4OL      -0.120400
      9 C14          3.5240     0.3000     1.4900 c3         1 4OL       0.106500
     10 C16          2.3450     2.3280     2.2410 c          1 4OL       0.687800
     11 C17          1.1380     0.6910     0.9470 c3         1 4OL       0.100500
     12 C18          0.2880    -0.1290     1.9070 c3         1 4OL      -0.097400
     13 C23          4.5520     3.5510     2.1460 cc         1 4OL      -0.232000
     14 C24          5.6790     4.0390     2.8340 cc         1 4OL      -0.028500
     15 C25          5.8720     3.7680     4.1580 cd         1 4OL      -0.263700
     16 C26          4.9430     2.9770     4.8920 c          1 4OL       0.680700
     17 O55         -1.7750    -3.9300     1.0060 o          1 4OL      -0.562600
     18 C28         -2.8310    -3.3270     1.0970 c          1 4OL       0.687800
     19 C34         -4.0700    -3.9850     0.5400 cc         1 4OL       0.033400
     20 C39         -4.4140    -3.9320    -0.7780 cd         1 4OL      -0.232000
     21 C38         -5.5400    -4.6580    -1.2060 cd         1 4OL      -0.028500
     22 C37         -6.2730    -5.4090    -0.3330 cc         1 4OL      -0.263700
     23 C36         -5.9240    -5.4860     1.0460 c          1 4OL       0.680700
     24 O47         -6.4800    -6.1120     1.9520 o          1 4OL      -0.645000
     25 N35         -4.8020    -4.7380     1.3790 n          1 4OL      -0.182500
     26 O46         -4.4320    -4.7600     2.6820 oh         1 4OL      -0.403600
     27 N21         -2.9770    -2.1150     1.6470 n          1 4OL      -0.461800
     28 C29         -4.2430    -1.3980     1.6610 c3         1 4OL       0.106500
     29 C30         -4.4460    -0.4880     0.4560 c3         1 4OL      -0.120400
     30 C31         -5.8100     0.1790     0.5130 c3         1 4OL       0.104000
     31 N32         -6.0170     0.9900    -0.6700 ns         1 4OL      -0.568900
     32 C33         -6.9630     1.9270    -0.7510 c          1 4OL       0.682800
     33 O53         -7.7400     2.2190     0.1390 o          1 4OL      -0.549600
     34 C40         -6.9550     2.6750    -2.0570 cc         1 4OL       0.026400
     35 N45         -8.0980     2.7400    -2.7660 n          1 4OL      -0.172000
     36 O50         -9.1570     2.0100    -2.3450 oh         1 4OL      -0.391600
     37 C44         -8.2870     3.4500    -3.9420 c          1 4OL       0.676700
     38 O51         -9.3970     3.3780    -4.4770 o          1 4OL      -0.646000
     39 C43         -7.1380     4.1720    -4.3770 cc         1 4OL      -0.259200
     40 C42         -5.9680     4.1210    -3.6770 cd         1 4OL      -0.031500
     41 C41         -5.8600     3.3590    -2.4990 cd         1 4OL      -0.237000
     42 C19         -0.9530    -0.6930     1.2280 c3         1 4OL      -0.097400
     43 N15          2.3650     1.1740     1.5670 n          1 4OL      -0.461800
     44 O54          1.3660     3.0430     2.3760 o          1 4OL      -0.562600
     45 C22          3.6510     2.7930     2.8340 cd         1 4OL       0.033400
     46 N27          3.8640     2.5400     4.1360 n          1 4OL      -0.182500
     47 O48          2.9580     1.7620     4.7760 oh         1 4OL      -0.403600
     48 N9           6.1530    -0.4420    -1.1210 ns         1 4OL      -0.568900
     49 O8           7.8060    -1.8800    -0.5570 o          1 4OL      -0.549600
     50 N3           8.2710    -1.7860    -3.4820 n          1 4OL      -0.172000
     51 O9           9.1520    -2.7000    -5.3290 o          1 4OL      -0.646000
     52 O10          7.8640    -3.0380    -3.1670 oh         1 4OL      -0.391600
     53 H1           9.2990     1.7160    -4.4610 ha         1 4OL       0.143000
     54 H2           9.8760    -0.1770    -5.9290 ha         1 4OL       0.167500
     55 H3           8.0550     1.3170    -2.3310 ha         1 4OL       0.156500
     56 H4           6.0850    -0.4610     0.9580 h1         1 4OL       0.059200
     57 H5           4.9880    -1.5930     0.1810 h1         1 4OL       0.059200
     58 H6           4.7120     1.4520     0.1120 hc         1 4OL       0.053200
     59 H7           3.6110     0.3160    -0.6620 hc         1 4OL       0.053200
     60 H8           3.1700    -0.7280     1.6030 h1         1 4OL       0.062450
     61 H9           4.1910     0.4740     2.3350 h1         1 4OL       0.062450
     62 H10          1.4230     0.0850     0.0840 h1         1 4OL       0.060450
     63 H11          0.5730     1.5390     0.5620 h1         1 4OL       0.060450
     64 H12          0.8840    -0.9530     2.3130 hc         1 4OL       0.052450
     65 H13         -0.0040     0.4940     2.7570 hc         1 4OL       0.052450
     66 H14         -2.1520    -0.8070     3.0150 h1         1 4OL       0.060450
     67 H15         -1.1930    -2.2370     2.7070 h1         1 4OL       0.060450
     68 H16          4.3860     3.7730     1.1030 ha         1 4OL       0.157500
     69 H17          6.4040     4.6390     2.3000 ha         1 4OL       0.144000
     70 H18          6.7370     4.1420     4.6880 ha         1 4OL       0.168500
     71 H19         -3.8300    -3.3370    -1.4650 ha         1 4OL       0.157500
     72 H20         -5.8290    -4.6180    -2.2480 ha         1 4OL       0.144000
     73 H21         -7.1410    -5.9650    -0.6590 ha         1 4OL       0.168500
     74 H22         -5.0900    -5.3630     3.0860 ho         1 4OL       0.460000
     75 H23         -5.0720    -2.1040     1.7330 h1         1 4OL       0.062450
     76 H24         -4.2780    -0.8120     2.5800 h1         1 4OL       0.062450
     77 H25         -3.6670     0.2760     0.4180 hc         1 4OL       0.053200
     78 H26         -4.3650    -1.0770    -0.4620 hc         1 4OL       0.053200
     79 H27         -6.5970    -0.5770     0.5930 h1         1 4OL       0.059200
     80 H28         -5.8830     0.8140     1.3970 h1         1 4OL       0.059200
     81 H29         -5.4900     0.7600    -1.4990 hn         1 4OL       0.322500
     82 H30         -9.8330     2.2060    -3.0270 ho         1 4OL       0.457500
     83 H31         -7.2270     4.7520    -5.2840 ha         1 4OL       0.167500
     84 H32         -5.1090     4.6760    -4.0300 ha         1 4OL       0.143000
     85 H33         -4.9410     3.3280    -1.9330 ha         1 4OL       0.156500
     86 H34         -1.5380     0.1220     0.7940 hc         1 4OL       0.052450
     87 H35         -0.6580    -1.3450     0.4020 hc         1 4OL       0.052450
     88 H36          3.3270     1.7010     5.6820 ho         1 4OL       0.460000
     89 H37          5.7570     0.1150    -1.8630 hn         1 4OL       0.322500
     90 H38          8.1890    -3.5590    -3.9320 ho         1 4OL       0.457500
     91 O49          4.9810     2.6390     6.0780 o          1 4OL      -0.645000
     92 C20         -1.8030    -1.4720     2.2240 c3         1 4OL       0.100500
@<TRIPOS>BOND
     1     1     2 1   
     2     1    48 1   
     3     1    49 2   
     4     2     6 2   
     5     2    50 1   
     6     3     4 2   
     7     3     6 1   
     8     3    53 1   
     9     4     5 1   
    10     4    54 1   
    11     5    50 1   
    12     5    51 2   
    13     6    55 1   
    14     7     8 1   
    15     7    48 1   
    16     7    56 1   
    17     7    57 1   
    18     8     9 1   
    19     8    58 1   
    20     8    59 1   
    21     9    43 1   
    22     9    60 1   
    23     9    61 1   
    24    10    43 1   
    25    10    44 2   
    26    10    45 1   
    27    11    12 1   
    28    11    43 1   
    29    11    62 1   
    30    11    63 1   
    31    12    42 1   
    32    12    64 1   
    33    12    65 1   
    34    13    14 1   
    35    13    45 2   
    36    13    68 1   
    37    14    15 2   
    38    14    69 1   
    39    15    16 1   
    40    15    70 1   
    41    16    46 1   
    42    16    91 2   
    43    17    18 2   
    44    18    19 1   
    45    18    27 1   
    46    19    20 2   
    47    19    25 1   
    48    20    21 1   
    49    20    71 1   
    50    21    22 2   
    51    21    72 1   
    52    22    23 1   
    53    22    73 1   
    54    23    24 2   
    55    23    25 1   
    56    25    26 1   
    57    26    74 1   
    58    27    28 1   
    59    27    92 1   
    60    28    29 1   
    61    28    75 1   
    62    28    76 1   
    63    29    30 1   
    64    29    77 1   
    65    29    78 1   
    66    30    31 1   
    67    30    79 1   
    68    30    80 1   
    69    31    32 1   
    70    31    81 1   
    71    32    33 2   
    72    32    34 1   
    73    34    35 1   
    74    34    41 2   
    75    35    36 1   
    76    35    37 1   
    77    36    82 1   
    78    37    38 2   
    79    37    39 1   
    80    39    40 2   
    81    39    83 1   
    82    40    41 1   
    83    40    84 1   
    84    41    85 1   
    85    42    86 1   
    86    42    87 1   
    87    42    92 1   
    88    45    46 1   
    89    46    47 1   
    90    47    88 1   
    91    48    89 1   
    92    50    52 1   
    93    52    90 1   
    94    66    92 1   
    95    67    92 1   
@<TRIPOS>SUBSTRUCTURE
     1 4OL         1 TEMP              0 ****  ****    0 ROOT
