@<TRIPOS>MOLECULE
4ON
   50    50     1     0     0
SMALL
No Charge or Current Charge


@<TRIPOS>ATOM
      1 C10         -5.4770     2.9560    23.8870 c3         1 4ON      -0.072400
      2 C13         -4.3010     5.2260    23.8700 c3         1 4ON      -0.036100
      3 C15         -2.5520     6.1080    22.2470 ca         1 4ON      -0.212000
      4 C21         -2.3390     6.6830    24.5960 ca         1 4ON      -0.212000
      5 C01         -5.8000     0.5600    14.6500 c3         1 4ON      -0.088100
      6 C02         -6.2530     1.1900    15.9810 c3         1 4ON      -0.074400
      7 C04         -5.8740     1.3500    18.5260 c3         1 4ON      -0.103400
      8 C05         -5.0710     0.8640    19.7560 c3         1 4ON       0.194300
      9 C07         -5.6050     1.4490    21.0840 c3         1 4ON      -0.103400
     10 C08         -4.8680     0.9190    22.3400 c3         1 4ON      -0.072400
     11 C09         -5.4570     1.4170    23.6840 c3         1 4ON      -0.069400
     12 C11         -4.1100     3.6890    23.7550 c3         1 4ON      -0.057700
     13 C12         -3.0590     3.1690    24.7700 c3         1 4ON      -0.086100
     14 C14         -3.0360     6.0230    23.5660 ca         1 4ON       0.002700
     15 C16         -1.3890     6.8370    21.9640 ca         1 4ON       0.178100
     16 C18         -0.6980     7.4890    22.9930 ca         1 4ON      -0.249000
     17 C19         -1.1750     7.4110    24.3070 ca         1 4ON       0.178100
     18 F06         -3.7680     1.2090    19.6060 f          1 4ON      -0.276000
     19 O17         -0.9340     6.9080    20.6840 oh         1 4ON      -0.533100
     20 O20         -0.5000     8.0470    25.3020 oh         1 4ON      -0.533100
     21 H1          -6.1850     3.3910    23.1720 hc         1 4ON       0.035700
     22 H2          -5.8930     3.1640    24.8810 hc         1 4ON       0.035700
     23 H3          -5.0900     5.5400    23.1760 hc         1 4ON       0.046700
     24 H4          -4.6730     5.4680    24.8740 hc         1 4ON       0.046700
     25 H5          -3.0800     5.6060    21.4400 ha         1 4ON       0.122500
     26 H6          -2.7050     6.6220    25.6180 ha         1 4ON       0.122500
     27 H7          -6.4200     0.9250    13.8230 hc         1 4ON       0.032367
     28 H8          -4.7560     0.8170    14.4350 hc         1 4ON       0.032367
     29 H9          -5.8880    -0.5330    14.6880 hc         1 4ON       0.032367
     30 H10         -6.1870     2.2820    15.8990 hc         1 4ON       0.036700
     31 H11         -7.3090     0.9450    16.1500 hc         1 4ON       0.036700
     32 H12         -5.4850    -0.3770    17.2690 hc         1 4ON       0.045200
     33 H13         -4.3620     0.9590    17.0130 hc         1 4ON       0.045200
     34 H14         -5.7960     2.4420    18.4540 hc         1 4ON       0.048700
     35 H15         -6.9340     1.1170    18.6830 hc         1 4ON       0.048700
     36 H16         -5.1280    -0.2320    19.8040 h1         1 4ON       0.046700
     37 H17         -5.5250     2.5420    21.0430 hc         1 4ON       0.049200
     38 H18         -6.6720     1.2100    21.1730 hc         1 4ON       0.049200
     39 H19         -4.9090    -0.1780    22.3340 hc         1 4ON       0.045700
     40 H20         -3.8060     1.1840    22.2850 hc         1 4ON       0.045700
     41 H21         -6.4850     1.0460    23.7730 hc         1 4ON       0.038200
     42 H22         -4.9010     0.9500    24.5060 hc         1 4ON       0.038200
     43 H23         -3.7210     3.4920    22.7490 hc         1 4ON       0.057700
     44 H24         -2.1030     3.6930    24.6510 hc         1 4ON       0.034367
     45 H25         -3.4040     3.3170    25.8000 hc         1 4ON       0.034367
     46 H26         -2.8600     2.1010    24.6220 hc         1 4ON       0.034367
     47 H27          0.2040     8.0560    22.7820 ha         1 4ON       0.128000
     48 H28         -0.1200     7.4540    20.6790 ho         1 4ON       0.466000
     49 H29         -0.9740     7.8860    26.1450 ho         1 4ON       0.466000
     50 C03         -5.4170     0.7160    17.1900 c3         1 4ON      -0.074400
@<TRIPOS>BOND
     1     1    11 1   
     2     1    12 1   
     3     1    21 1   
     4     1    22 1   
     5     2    12 1   
     6     2    14 1   
     7     2    23 1   
     8     2    24 1   
     9     3    14 ar  
    10     3    15 ar  
    11     3    25 1   
    12     4    14 ar  
    13     4    17 ar  
    14     4    26 1   
    15     5     6 1   
    16     5    27 1   
    17     5    28 1   
    18     5    29 1   
    19     6    30 1   
    20     6    31 1   
    21     6    50 1   
    22     7     8 1   
    23     7    34 1   
    24     7    35 1   
    25     7    50 1   
    26     8     9 1   
    27     8    18 1   
    28     8    36 1   
    29     9    10 1   
    30     9    37 1   
    31     9    38 1   
    32    10    11 1   
    33    10    39 1   
    34    10    40 1   
    35    11    41 1   
    36    11    42 1   
    37    12    13 1   
    38    12    43 1   
    39    13    44 1   
    40    13    45 1   
    41    13    46 1   
    42    15    16 ar  
    43    15    19 1   
    44    16    17 ar  
    45    16    47 1   
    46    17    20 1   
    47    19    48 1   
    48    20    49 1   
    49    32    50 1   
    50    33    50 1   
@<TRIPOS>SUBSTRUCTURE
     1 4ON         1 TEMP              0 ****  ****    0 ROOT
