@<TRIPOS>MOLECULE
4ON
   50    50     1     0     0
SMALL
abcg2


@<TRIPOS>ATOM
      1 C10         -5.4420     2.9680    23.8160 c3         1 4ON      -0.072400
      2 C13         -4.2920     5.1840    23.8140 c3         1 4ON      -0.036100
      3 C15         -2.5610     6.0900    22.2490 ca         1 4ON      -0.212000
      4 C21         -2.3890     6.6350    24.5870 ca         1 4ON      -0.212000
      5 C01         -5.7910     0.5630    14.7550 c3         1 4ON      -0.088100
      6 C02         -6.2390     1.2030    16.0620 c3         1 4ON      -0.074400
      7 C04         -5.8640     1.3770    18.5660 c3         1 4ON      -0.103400
      8 C05         -5.1200     0.8700    19.7830 c3         1 4ON       0.194300
      9 C07         -5.5740     1.5010    21.0830 c3         1 4ON      -0.103400
     10 C08         -4.8420     0.9650    22.3090 c3         1 4ON      -0.072400
     11 C09         -5.4270     1.4520    23.6330 c3         1 4ON      -0.069400
     12 C11         -4.0890     3.6680    23.6690 c3         1 4ON      -0.057700
     13 C12         -3.0630     3.1450    24.6670 c3         1 4ON      -0.086100
     14 C14         -3.0530     5.9940    23.5460 ca         1 4ON       0.002700
     15 C16         -1.4060     6.8270    21.9980 ca         1 4ON       0.178100
     16 C18         -0.7380     7.4700    23.0350 ca         1 4ON      -0.249000
     17 C19         -1.2350     7.3700    24.3300 ca         1 4ON       0.178100
     18 F06         -3.7470     1.1280    19.6130 f          1 4ON      -0.276000
     19 O17         -0.9730     6.8930    20.7230 oh         1 4ON      -0.533100
     20 O20         -0.5560     8.0110    25.3020 oh         1 4ON      -0.533100
     21 H1          -6.1450     3.4130    23.1050 hc         1 4ON       0.035700
     22 H2          -5.8440     3.1950    24.8090 hc         1 4ON       0.035700
     23 H3          -5.0800     5.4960    23.1220 hc         1 4ON       0.046700
     24 H4          -4.6620     5.3970    24.8220 hc         1 4ON       0.046700
     25 H5          -3.0730     5.5990    21.4300 ha         1 4ON       0.122500
     26 H6          -2.7730     6.5600    25.6000 ha         1 4ON       0.122500
     27 H7          -6.3860     0.9150    13.9120 hc         1 4ON       0.032367
     28 H8          -4.7460     0.7950    14.5420 hc         1 4ON       0.032367
     29 H9          -5.8850    -0.5230    14.7960 hc         1 4ON       0.032367
     30 H10         -6.1680     2.2920    15.9790 hc         1 4ON       0.036700
     31 H11         -7.2960     0.9810    16.2370 hc         1 4ON       0.036700
     32 H12         -5.4970    -0.3550    17.3440 hc         1 4ON       0.045200
     33 H13         -4.3630     0.9520    17.0760 hc         1 4ON       0.045200
     34 H14         -5.7640     2.4660    18.5030 hc         1 4ON       0.048700
     35 H15         -6.9280     1.1750    18.7240 hc         1 4ON       0.048700
     36 H16         -5.2200    -0.2200    19.8480 h1         1 4ON       0.046700
     37 H17         -5.4660     2.5880    21.0090 hc         1 4ON       0.049200
     38 H18         -6.6460     1.3060    21.1860 hc         1 4ON       0.049200
     39 H19         -4.8820    -0.1290    22.2960 hc         1 4ON       0.045700
     40 H20         -3.7830     1.2270    22.2520 hc         1 4ON       0.045700
     41 H21         -6.4540     1.0860    23.7230 hc         1 4ON       0.038200
     42 H22         -4.8740     0.9860    24.4530 hc         1 4ON       0.038200
     43 H23         -3.7090     3.4850    22.6560 hc         1 4ON       0.057700
     44 H24         -2.1100     3.6660    24.5750 hc         1 4ON       0.034367
     45 H25         -3.4180     3.2800    25.6930 hc         1 4ON       0.034367
     46 H26         -2.8660     2.0830    24.5220 hc         1 4ON       0.034367
     47 H27          0.1600     8.0480    22.8440 ha         1 4ON       0.128000
     48 H28         -0.1700     7.4220    20.6670 ho         1 4ON       0.466000
     49 H29         -0.9840     7.8740    26.1550 ho         1 4ON       0.466000
     50 C03         -5.4190     0.7340    17.2580 c3         1 4ON      -0.074400
@<TRIPOS>BOND
     1     1    11 1   
     2     1    12 1   
     3     1    21 1   
     4     1    22 1   
     5     2    12 1   
     6     2    14 1   
     7     2    23 1   
     8     2    24 1   
     9     3    14 ar  
    10     3    15 ar  
    11     3    25 1   
    12     4    14 ar  
    13     4    17 ar  
    14     4    26 1   
    15     5     6 1   
    16     5    27 1   
    17     5    28 1   
    18     5    29 1   
    19     6    30 1   
    20     6    31 1   
    21     6    50 1   
    22     7     8 1   
    23     7    34 1   
    24     7    35 1   
    25     7    50 1   
    26     8     9 1   
    27     8    18 1   
    28     8    36 1   
    29     9    10 1   
    30     9    37 1   
    31     9    38 1   
    32    10    11 1   
    33    10    39 1   
    34    10    40 1   
    35    11    41 1   
    36    11    42 1   
    37    12    13 1   
    38    12    43 1   
    39    13    44 1   
    40    13    45 1   
    41    13    46 1   
    42    15    16 ar  
    43    15    19 1   
    44    16    17 ar  
    45    16    47 1   
    46    17    20 1   
    47    19    48 1   
    48    20    49 1   
    49    32    50 1   
    50    33    50 1   
@<TRIPOS>SUBSTRUCTURE
     1 4ON         1 TEMP              0 ****  ****    0 ROOT
