@<TRIPOS>MOLECULE
4OO
   25    25     1     0     0
SMALL
abcg2


@<TRIPOS>ATOM
      1 N1          18.9710     9.2800   -25.4410 ne         1 4OO      -0.009400
      2 N2          19.3860    10.2540   -24.9500 n1         1 4OO       0.107000
      3 N3          19.8180    11.3320   -24.7150 n2         1 4OO      -0.229400
      4 C           12.5240     5.2650   -23.3330 c          1 4OO       0.687000
      5 O           12.2970     4.0670   -23.6310 o          1 4OO      -0.690000
      6 CA          13.9830     5.7740   -23.5080 c3         1 4OO       0.028500
      7 N           15.0120     4.7370   -23.4190 n8         1 4OO      -1.022200
      8 CB          14.0720     6.4940   -24.8730 c3         1 4OO      -0.053100
      9 CG          15.3570     7.2420   -25.0410 ca         1 4OO       0.101700
     10 CD2         16.3920     6.7400   -25.8360 ca         1 4OO      -0.113500
     11 CE2         17.5900     7.4210   -25.9580 ca         1 4OO      -0.035500
     12 CZ          17.7470     8.6230   -25.2680 ca         1 4OO       0.003400
     13 CE1         16.7330     9.1550   -24.4630 ca         1 4OO      -0.035500
     14 CD1         15.5490     8.4560   -24.3630 ca         1 4OO      -0.113500
     15 H1          20.3990    11.3780   -23.8620 hn         1 4OO       0.462400
     16 H3          14.1690     6.5090   -22.7220 h1         1 4OO       0.043700
     17 H4          15.0880     4.4340   -22.4530 hn         1 4OO       0.405500
     18 H5          14.6660     3.9260   -23.9250 hn         1 4OO       0.405500
     19 H7          13.2340     7.1900   -24.9450 hc         1 4OO       0.082200
     20 H8          13.9640     5.7500   -25.6660 hc         1 4OO       0.082200
     21 H9          16.2540     5.8050   -26.3620 ha         1 4OO       0.159000
     22 H10         18.3980     7.0440   -26.5690 ha         1 4OO       0.132500
     23 H11         16.8760    10.0900   -23.9380 ha         1 4OO       0.132500
     24 H12         14.7510     8.8520   -23.7470 ha         1 4OO       0.159000
     25 O1          11.6850     6.1130   -22.9340 o          1 4OO      -0.690000
@<TRIPOS>BOND
     1     1     2 2   
     2     1    12 1   
     3     2     3 2   
     4     3    15 1   
     5     4     5 1   
     6     4     6 1   
     7     4    25 1   
     8     6     7 1   
     9     6     8 1   
    10     6    16 1   
    11     7    17 1   
    12     7    18 1   
    13     8     9 1   
    14     8    19 1   
    15     8    20 1   
    16     9    10 ar  
    17     9    14 ar  
    18    10    11 ar  
    19    10    21 1   
    20    11    12 ar  
    21    11    22 1   
    22    12    13 ar  
    23    13    14 ar  
    24    13    23 1   
    25    14    24 1   
@<TRIPOS>SUBSTRUCTURE
     1 4OO         1 TEMP              0 ****  ****    0 ROOT
