@<TRIPOS>MOLECULE
4OO
   25    25     1     0     0
SMALL
No Charge or Current Charge


@<TRIPOS>ATOM
      1 N1          18.6930     9.7910   -25.5110 ne         1 4OO      -0.009400
      2 N2          19.6100     9.7220   -24.6640 n1         1 4OO       0.107000
      3 N3          20.2230    10.7970   -24.6190 n2         1 4OO      -0.229400
      4 C           12.5020     5.0880   -23.3660 c          1 4OO       0.687000
      5 O           12.3630     3.9760   -23.8580 o          1 4OO      -0.690000
      6 CA          13.9130     5.7940   -23.4990 c3         1 4OO       0.028500
      7 N           15.1130     4.9600   -23.1190 n8         1 4OO      -1.022200
      8 CB          14.0860     6.3820   -24.9240 c3         1 4OO      -0.053100
      9 CG          15.3120     7.2780   -25.0730 ca         1 4OO       0.101700
     10 CD2         16.4250     6.8520   -25.8240 ca         1 4OO      -0.113500
     11 CE2         17.5490     7.6850   -25.9690 ca         1 4OO      -0.035500
     12 CZ          17.5710     8.9560   -25.3640 ca         1 4OO       0.003400
     13 CE1         16.4580     9.3880   -24.6200 ca         1 4OO      -0.035500
     14 CD1         15.3350     8.5530   -24.4760 ca         1 4OO      -0.113500
     15 H1          21.0720    10.6930   -24.0490 hn         1 4OO       0.462400
     16 H3          13.8910     6.6430   -22.8020 h1         1 4OO       0.043700
     17 H4          15.0140     4.6540   -22.1420 hn         1 4OO       0.405500
     18 H5          15.0690     4.0730   -23.6370 hn         1 4OO       0.405500
     19 H7          13.1890     6.9630   -25.1720 hc         1 4OO       0.082200
     20 H8          14.1160     5.5620   -25.6510 hc         1 4OO       0.082200
     21 H9          16.4220     5.8700   -26.2930 ha         1 4OO       0.159000
     22 H10         18.4030     7.3440   -26.5500 ha         1 4OO       0.132500
     23 H11         16.4630    10.3710   -24.1530 ha         1 4OO       0.132500
     24 H12         14.4800     8.8980   -23.8980 ha         1 4OO       0.159000
     25 O1          11.6430     5.6380   -22.6900 o          1 4OO      -0.690000
@<TRIPOS>BOND
     1     1     2 2   
     2     1    12 1   
     3     2     3 2   
     4     3    15 1   
     5     4     5 1   
     6     4     6 1   
     7     4    25 1   
     8     6     7 1   
     9     6     8 1   
    10     6    16 1   
    11     7    17 1   
    12     7    18 1   
    13     8     9 1   
    14     8    19 1   
    15     8    20 1   
    16     9    10 ar  
    17     9    14 ar  
    18    10    11 ar  
    19    10    21 1   
    20    11    12 ar  
    21    11    22 1   
    22    12    13 ar  
    23    13    14 ar  
    24    13    23 1   
    25    14    24 1   
@<TRIPOS>SUBSTRUCTURE
     1 4OO         1 TEMP              0 ****  ****    0 ROOT
