@<TRIPOS>MOLECULE
4OP
   24    24     1     0     0
SMALL
No Charge or Current Charge


@<TRIPOS>ATOM
      1 CN1         29.8770    58.6250     8.0480 c3         1 4OP       0.090400
      2 N           29.7490    59.3010     6.6700 n4         1 4OP      -0.476000
      3 CD          31.0740    59.9670     6.2200 c5         1 4OP       0.083600
      4 CG          31.1750    61.3010     7.0320 c5         1 4OP       0.148300
      5 CB          29.7090    61.5940     7.4880 c5         1 4OP      -0.118400
      6 CA          28.8470    60.5740     6.6810 c5         1 4OP      -0.028700
      7 C           27.3890    60.4500     7.2510 c          1 4OP       0.731000
      8 OXT         27.2080    60.3880     8.4600 o          1 4OP      -0.666500
      9 O           26.4620    60.4200     6.4540 o          1 4OP      -0.666500
     10 OG          32.0440    61.1690     8.1600 oh         1 4OP      -0.663000
     11 CN2         29.2600    58.2690     5.6480 c3         1 4OP       0.090400
     12 H1          30.2500    59.3490     8.7740 hx         1 4OP       0.088867
     13 H2          28.8970    58.2610     8.3620 hx         1 4OP       0.088867
     14 H3          30.5760    57.7900     7.9730 hx         1 4OP       0.088867
     15 H4          31.9050    59.2790     6.3890 hx         1 4OP       0.087200
     16 H5          30.9930    60.1570     5.1480 hx         1 4OP       0.087200
     17 H6          31.5430    62.0970     6.3690 h1         1 4OP       0.057700
     18 H7          29.4130    62.6280     7.2800 hc         1 4OP       0.089200
     19 H8          29.5950    61.4480     8.5680 hc         1 4OP       0.089200
     20 H9          28.7350    60.8840     5.6400 hx         1 4OP       0.067700
     21 H11         32.1220    62.0610     8.5670 ho         1 4OP       0.466000
     22 H12         28.2850    57.8900     5.9600 hx         1 4OP       0.088867
     23 H13         29.1740    58.7460     4.6700 hx         1 4OP       0.088867
     24 H14         29.9770    57.4470     5.5970 hx         1 4OP       0.088867
@<TRIPOS>BOND
     1     1     2 1   
     2     1    12 1   
     3     1    13 1   
     4     1    14 1   
     5     2     3 1   
     6     2     6 1   
     7     2    11 1   
     8     3     4 1   
     9     3    15 1   
    10     3    16 1   
    11     4     5 1   
    12     4    10 1   
    13     4    17 1   
    14     5     6 1   
    15     5    18 1   
    16     5    19 1   
    17     6     7 1   
    18     6    20 1   
    19     7     8 1   
    20     7     9 1   
    21    10    21 1   
    22    11    22 1   
    23    11    23 1   
    24    11    24 1   
@<TRIPOS>SUBSTRUCTURE
     1 4OP         1 TEMP              0 ****  ****    0 ROOT
