@<TRIPOS>MOLECULE
4OP
   24    24     1     0     0
SMALL
bcc


@<TRIPOS>ATOM
      1 CN1         29.8510    58.6060     7.9170 c3         1 4OP       0.118600
      2 N           29.7150    59.3610     6.6380 n4         1 4OP      -0.588800
      3 CD          31.0340    59.9710     6.2610 c5         1 4OP       0.111800
      4 CG          31.1780    61.2340     7.1000 c5         1 4OP       0.125100
      5 CB          29.7300    61.5990     7.4840 c5         1 4OP      -0.118400
      6 CA          28.8330    60.5900     6.7740 c5         1 4OP      -0.000500
      7 C           27.4260    60.3940     7.3870 c          1 4OP       0.941600
      8 OXT         26.9100    61.4590     7.7550 o          1 4OP      -0.771800
      9 O           26.9410    59.2510     7.4060 o          1 4OP      -0.771800
     10 OG          32.0080    60.9660     8.2050 oh         1 4OP      -0.600800
     11 CN2         29.2540    58.4330     5.5750 c3         1 4OP       0.118600
     12 H1          30.1800    59.2650     8.7140 hx         1 4OP       0.088867
     13 H2          28.8940    58.1670     8.1700 hx         1 4OP       0.088867
     14 H3          30.5950    57.8260     7.7700 hx         1 4OP       0.088867
     15 H4          31.8340    59.2460     6.4020 hx         1 4OP       0.087200
     16 H5          30.9710    60.2250     5.2030 hx         1 4OP       0.087200
     17 H6          31.6170    62.0180     6.4730 h1         1 4OP       0.057700
     18 H7          29.4670    62.6090     7.1810 hc         1 4OP       0.089200
     19 H8          29.6070    61.5430     8.5670 hc         1 4OP       0.089200
     20 H9          28.6850    60.9200     5.7390 hx         1 4OP       0.067700
     21 H11         32.0840    61.7720     8.7270 ho         1 4OP       0.427000
     22 H12         28.3070    57.9990     5.8730 hx         1 4OP       0.088867
     23 H13         29.1350    58.9860     4.6460 hx         1 4OP       0.088867
     24 H14         30.0020    57.6540     5.4430 hx         1 4OP       0.088867
@<TRIPOS>BOND
     1     1     2 1   
     2     1    12 1   
     3     1    13 1   
     4     1    14 1   
     5     2     3 1   
     6     2     6 1   
     7     2    11 1   
     8     3     4 1   
     9     3    15 1   
    10     3    16 1   
    11     4     5 1   
    12     4    10 1   
    13     4    17 1   
    14     5     6 1   
    15     5    18 1   
    16     5    19 1   
    17     6     7 1   
    18     6    20 1   
    19     7     8 1   
    20     7     9 1   
    21    10    21 1   
    22    11    22 1   
    23    11    23 1   
    24    11    24 1   
@<TRIPOS>SUBSTRUCTURE
     1 4OP         1 TEMP              0 ****  ****    0 ROOT
