@<TRIPOS>MOLECULE
4OQ
   48    51     1     0     0
SMALL
No Charge or Current Charge


@<TRIPOS>ATOM
      1 C1           1.0820     0.4630     2.7920 c3         1 4OQ       0.061600
      2 C2           2.2550     0.0970     0.6240 ca         1 4OQ      -0.062200
      3 C3           3.6060     0.3380     0.9510 ca         1 4OQ      -0.105000
      4 C11         -1.1940     3.3210    -0.7970 ca         1 4OQ       0.093000
      5 C12         -0.3740     3.8440     0.2140 ca         1 4OQ      -0.071000
      6 C13          0.4550     2.9810     0.9490 ca         1 4OQ      -0.145000
      7 C14          0.4510     1.6000     0.6790 ca         1 4OQ       0.038800
      8 C15         -1.9200    -2.1440    -1.6220 c6         1 4OQ       0.206800
      9 C16         -2.2280    -3.3530    -0.6830 c6         1 4OQ       0.132300
     10 C17         -3.6920    -4.2330     1.1100 c3         1 4OQ       0.154100
     11 C18         -3.1160    -1.8260     1.0190 c6         1 4OQ       0.132300
     12 C19         -2.8000    -0.5970     0.1060 c6         1 4OQ       0.206800
     13 Cl          -2.2270     4.3940    -1.7320 cl         1 4OQ      -0.196000
     14 C10         -1.1910     1.9420    -1.0650 ca         1 4OQ      -0.058000
     15 N            1.2890     0.7560     1.3620 na         1 4OQ      -0.145600
     16 C           -0.0960    -0.4940     3.0420 c3         1 4OQ      -0.098100
     17 C9          -0.3720     1.0580    -0.3190 ca         1 4OQ      -0.221500
     18 C8          -0.4020    -0.3940    -0.5950 cc         1 4OQ       0.516400
     19 N2          -1.6760    -0.8830    -0.8440 nh         1 4OQ      -0.768300
     20 N3          -3.3710    -3.0800     0.2430 n3         1 4OQ      -0.718600
     21 N1           0.6300    -1.1950    -0.8520 nd         1 4OQ      -0.476000
     22 C7           1.9170    -0.8090    -0.4250 ca         1 4OQ       0.296000
     23 C6           2.9680    -1.4970    -1.0610 ca         1 4OQ      -0.144000
     24 C5           4.3060    -1.2560    -0.7260 ca         1 4OQ       0.174000
     25 F            5.2890    -1.9210    -1.3710 f          1 4OQ      -0.180000
     26 C4           4.6320    -0.3340     0.2720 ca         1 4OQ      -0.157000
     27 H1           1.9970     0.0160     3.2030 h1         1 4OQ       0.039200
     28 H2           0.9020     1.4050     3.3260 h1         1 4OQ       0.039200
     29 H3           3.8600     1.0430     1.7400 ha         1 4OQ       0.114000
     30 H4          -0.3740     4.9120     0.4180 ha         1 4OQ       0.131000
     31 H5           1.1060     3.3850     1.7210 ha         1 4OQ       0.125000
     32 H6          -1.0710    -2.3970    -2.2740 h1         1 4OQ       0.067950
     33 H7          -2.7830    -1.9980    -2.2890 h1         1 4OQ       0.067950
     34 H8          -2.4450    -4.2320    -1.3060 h1         1 4OQ       0.043450
     35 H9          -1.3200    -3.5840    -0.1060 h1         1 4OQ       0.043450
     36 H10         -4.5660    -4.0140     1.7380 h1         1 4OQ       0.031700
     37 H11         -3.9240    -5.1200     0.5060 h1         1 4OQ       0.031700
     38 H12         -2.8470    -4.4760     1.7690 h1         1 4OQ       0.031700
     39 H13         -2.2680    -1.9780     1.7020 h1         1 4OQ       0.043450
     40 H14         -3.9880    -1.5820     1.6440 h1         1 4OQ       0.043450
     41 H15         -3.7060    -0.3380    -0.4610 h1         1 4OQ       0.067950
     42 H16         -2.5750     0.2650     0.7510 h1         1 4OQ       0.067950
     43 H17         -1.8310     1.5600    -1.8570 ha         1 4OQ       0.144000
     44 H18         -1.0360    -0.0460     2.6990 hc         1 4OQ       0.042367
     45 H19          0.0560    -1.4400     2.5090 hc         1 4OQ       0.042367
     46 H20         -0.1910    -0.7120     4.1120 hc         1 4OQ       0.042367
     47 H22          2.7420    -2.2210    -1.8370 ha         1 4OQ       0.143000
     48 H23          5.6730    -0.1510     0.5270 ha         1 4OQ       0.132000
@<TRIPOS>BOND
     1     1    15 1   
     2     1    16 1   
     3     1    27 1   
     4     1    28 1   
     5     2     3 ar  
     6     2    15 1   
     7     2    22 ar  
     8     3    26 ar  
     9     3    29 1   
    10     4     5 ar  
    11     4    13 1   
    12     4    14 ar  
    13     5     6 ar  
    14     5    30 1   
    15     6     7 ar  
    16     6    31 1   
    17     7    15 1   
    18     7    17 ar  
    19     8     9 1   
    20     8    19 1   
    21     8    32 1   
    22     8    33 1   
    23     9    20 1   
    24     9    34 1   
    25     9    35 1   
    26    10    20 1   
    27    10    36 1   
    28    10    37 1   
    29    10    38 1   
    30    11    12 1   
    31    11    20 1   
    32    11    39 1   
    33    11    40 1   
    34    12    19 1   
    35    12    41 1   
    36    12    42 1   
    37    14    17 ar  
    38    14    43 1   
    39    16    44 1   
    40    16    45 1   
    41    16    46 1   
    42    17    18 1   
    43    18    19 1   
    44    18    21 2   
    45    21    22 1   
    46    22    23 ar  
    47    23    24 ar  
    48    23    47 1   
    49    24    25 1   
    50    24    26 ar  
    51    26    48 1   
@<TRIPOS>SUBSTRUCTURE
     1 4OQ         1 TEMP              0 ****  ****    0 ROOT
