@<TRIPOS>MOLECULE
4OQ
   48    51     1     0     0
SMALL
abcg2


@<TRIPOS>ATOM
      1 C1           1.2150     0.2640     2.8570 c3         1 4OQ       0.061600
      2 C2           2.1190    -0.1800     0.6070 ca         1 4OQ      -0.062200
      3 C3           3.4370     0.0680     0.9720 ca         1 4OQ      -0.105000
      4 C11         -1.1080     3.1710    -0.6240 ca         1 4OQ       0.093000
      5 C12         -0.4520     3.5140     0.5490 ca         1 4OQ      -0.071000
      6 C13          0.2450     2.5430     1.2480 ca         1 4OQ      -0.145000
      7 C14          0.2720     1.2240     0.7980 ca         1 4OQ       0.038800
      8 C15         -1.7840    -2.3750    -1.6800 c6         1 4OQ       0.206800
      9 C16         -2.0370    -3.3710    -0.5600 c6         1 4OQ       0.132300
     10 C17         -3.5500    -3.9730     1.2000 c3         1 4OQ       0.154100
     11 C18         -3.1610    -1.6680     0.6870 c6         1 4OQ       0.132300
     12 C19         -2.9010    -0.6640    -0.4260 c6         1 4OQ       0.206800
     13 CL          -1.9520     4.3910    -1.5200 cl         1 4OQ      -0.196000
     14 C10         -1.1140     1.8660    -1.0780 ca         1 4OQ      -0.058000
     15 N            1.0240     0.2080     1.4160 na         1 4OQ      -0.145600
     16 C           -0.1030     0.1170     3.5960 c3         1 4OQ      -0.098100
     17 C9          -0.4440     0.8860    -0.3510 ca         1 4OQ      -0.221500
     18 C8          -0.4720    -0.5290    -0.8000 cc         1 4OQ       0.516400
     19 N2          -1.6910    -1.0210    -1.1580 nh         1 4OQ      -0.768300
     20 N3          -3.2440    -3.0160     0.1640 n3         1 4OQ      -0.718600
     21 N1           0.5790    -1.2490    -0.9680 nd         1 4OQ      -0.476000
     22 C7           1.8450    -0.8490    -0.6040 ca         1 4OQ       0.296000
     23 C6           2.9160    -1.2400    -1.4120 ca         1 4OQ      -0.144000
     24 C5           4.2080    -0.9720    -1.0160 ca         1 4OQ       0.174000
     25 F            5.2200    -1.3620    -1.8130 f          1 4OQ      -0.180000
     26 C4           4.4990    -0.3340     0.1720 ca         1 4OQ      -0.157000
     27 H1           1.8650    -0.5710     3.1200 h1         1 4OQ       0.039200
     28 H2           1.7340     1.1720     3.1890 h1         1 4OQ       0.039200
     29 H3           3.6530     0.5800     1.9000 ha         1 4OQ       0.114000
     30 H4          -0.4650     4.5330     0.9090 ha         1 4OQ       0.131000
     31 H5           0.7710     2.8280     2.1490 ha         1 4OQ       0.125000
     32 H6          -0.8750    -2.6260    -2.2180 h1         1 4OQ       0.067950
     33 H7          -2.6190    -2.4000    -2.3860 h1         1 4OQ       0.067950
     34 H8          -2.1600    -4.3690    -0.9880 h1         1 4OQ       0.043450
     35 H9          -1.1540    -3.4080     0.1020 h1         1 4OQ       0.043450
     36 H10         -4.4930    -3.7120     1.6830 h1         1 4OQ       0.031700
     37 H11         -3.6600    -4.9690     0.7670 h1         1 4OQ       0.031700
     38 H12         -2.7770    -4.0310     1.9820 h1         1 4OQ       0.031700
     39 H13         -2.3680    -1.5650     1.4510 h1         1 4OQ       0.043450
     40 H14         -4.1060    -1.4140     1.1730 h1         1 4OQ       0.043450
     41 H15         -3.7380    -0.6570    -1.1280 h1         1 4OQ       0.067950
     42 H16         -2.8260     0.3330    -0.0000 h1         1 4OQ       0.067950
     43 H17         -1.6480     1.6000    -1.9810 ha         1 4OQ       0.144000
     44 H18         -0.7840     0.9470     3.4070 hc         1 4OQ       0.042367
     45 H19         -0.6040    -0.8070     3.3050 hc         1 4OQ       0.042367
     46 H20          0.0790     0.0830     4.6710 hc         1 4OQ       0.042367
     47 H22          2.7190    -1.7730    -2.3330 ha         1 4OQ       0.143000
     48 H23          5.5210    -0.1470     0.4720 ha         1 4OQ       0.132000
@<TRIPOS>BOND
     1     1    15 1   
     2     1    16 1   
     3     1    27 1   
     4     1    28 1   
     5     2     3 ar  
     6     2    15 1   
     7     2    22 ar  
     8     3    26 ar  
     9     3    29 1   
    10     4     5 ar  
    11     4    13 1   
    12     4    14 ar  
    13     5     6 ar  
    14     5    30 1   
    15     6     7 ar  
    16     6    31 1   
    17     7    15 1   
    18     7    17 ar  
    19     8     9 1   
    20     8    19 1   
    21     8    32 1   
    22     8    33 1   
    23     9    20 1   
    24     9    34 1   
    25     9    35 1   
    26    10    20 1   
    27    10    36 1   
    28    10    37 1   
    29    10    38 1   
    30    11    12 1   
    31    11    20 1   
    32    11    39 1   
    33    11    40 1   
    34    12    19 1   
    35    12    41 1   
    36    12    42 1   
    37    14    17 ar  
    38    14    43 1   
    39    16    44 1   
    40    16    45 1   
    41    16    46 1   
    42    17    18 1   
    43    18    19 1   
    44    18    21 2   
    45    21    22 1   
    46    22    23 ar  
    47    23    24 ar  
    48    23    47 1   
    49    24    25 1   
    50    24    26 ar  
    51    26    48 1   
@<TRIPOS>SUBSTRUCTURE
     1 4OQ         1 TEMP              0 ****  ****    0 ROOT
