@<TRIPOS>MOLECULE
4OR
   61    64     1     0     0
SMALL
abcg2


@<TRIPOS>ATOM
      1 C1           4.2990     0.8540    -2.2640 c3         1 4OR       0.108600
      2 C2           3.2710     1.7110    -0.1600 ca         1 4OR      -0.032200
      3 C3           4.1600     2.6990     0.2560 ca         1 4OR      -0.088000
      4 C11         -3.4650    -0.9020    -1.8090 c5         1 4OR       0.109000
      5 C12         -2.0790    -0.3040     0.0850 c5         1 4OR       0.106000
      6 C13         -4.4990    -0.0450     0.3100 c          1 4OR       0.666100
      7 C14         -6.9940     0.2300     0.2830 c3         1 4OR       0.152400
      8 C15         -7.0430     1.6770     0.7800 c3         1 4OR      -0.104100
      9 C16         -7.3190    -0.7410     1.4190 c3         1 4OR      -0.104100
     10 C17         -8.0300     0.0550    -0.8280 c3         1 4OR      -0.104100
     11 C18          2.3310    -1.1260    -0.0630 ca         1 4OR      -0.242500
     12 C19          2.2030    -2.3710     0.5510 ca         1 4OR      -0.071000
     13 C20          3.3250    -3.1500     0.7590 ca         1 4OR       0.095000
     14 C21          4.5800    -2.7140     0.3570 ca         1 4OR      -0.070000
     15 C22          4.7070    -1.4610    -0.2150 ca         1 4OR      -0.133000
     16 C23          3.5940    -0.6440    -0.4180 ca         1 4OR       0.092800
     17 CL           3.1620    -4.6950     1.5260 cl         1 4OR      -0.195000
     18 N            3.7320     0.6390    -0.9450 na         1 4OR      -0.235600
     19 C            3.2420     0.8550    -3.3590 c3         1 4OR      -0.119100
     20 C8           1.1130    -0.3380    -0.3880 cc         1 4OR       0.527400
     21 N1           0.9410     0.9250    -0.2160 nd         1 4OR      -0.493000
     22 C7           1.9180     1.7910     0.2180 ca         1 4OR       0.287000
     23 C6           1.5060     2.8710     1.0090 ca         1 4OR      -0.145000
     24 C5           2.4170     3.8300     1.3920 ca         1 4OR       0.175000
     25 F            1.9900     4.8600     2.1460 f          1 4OR      -0.180000
     26 C4           3.7480     3.7780     1.0230 ca         1 4OR      -0.162000
     27 N2           0.0900    -1.0710    -0.8680 nu         1 4OR      -0.943100
     28 C9          -1.2060    -0.5180    -1.1560 c5         1 4OR       0.222500
     29 N3          -3.4220    -0.3600    -0.4580 n          1 4OR      -0.447800
     30 C10         -2.0570    -1.4410    -2.0210 c5         1 4OR      -0.110400
     31 O           -4.3660     0.2450     1.4980 o          1 4OR      -0.645100
     32 N4          -5.7000    -0.0910    -0.3240 ns         1 4OR      -0.525900
     33 H1           4.8460     1.7980    -2.2670 h1         1 4OR       0.043700
     34 H2           5.0390     0.0750    -2.4580 h1         1 4OR       0.043700
     35 H3           5.2010     2.6210    -0.0310 ha         1 4OR       0.116000
     36 H4          -4.2150    -1.6900    -1.9040 h1         1 4OR       0.042200
     37 H5          -3.6990    -0.1260    -2.5460 h1         1 4OR       0.042200
     38 H6          -1.8970    -1.1010     0.8150 h1         1 4OR       0.065200
     39 H7          -1.8710     0.6510     0.5660 h1         1 4OR       0.065200
     40 H8          -6.3330     1.8500     1.5860 hc         1 4OR       0.043589
     41 H9          -6.8180     2.3710    -0.0310 hc         1 4OR       0.043589
     42 H10         -8.0420     1.9110     1.1520 hc         1 4OR       0.043589
     43 H11         -8.3090    -0.5260     1.8220 hc         1 4OR       0.043589
     44 H12         -7.3210    -1.7710     1.0560 hc         1 4OR       0.043589
     45 H13         -6.6010    -0.6650     2.2330 hc         1 4OR       0.043589
     46 H14         -7.8420     0.7420    -1.6570 hc         1 4OR       0.043589
     47 H15         -8.0270    -0.9640    -1.2200 hc         1 4OR       0.043589
     48 H16         -9.0290     0.2640    -0.4470 hc         1 4OR       0.043589
     49 H17          1.2310    -2.7320     0.8620 ha         1 4OR       0.134000
     50 H18          5.4540    -3.3310     0.5140 ha         1 4OR       0.133000
     51 H19          5.6880    -1.1020    -0.4970 ha         1 4OR       0.127000
     52 H20          2.5140     1.6510    -3.1980 hc         1 4OR       0.042367
     53 H21          3.7000     1.0080    -4.3380 hc         1 4OR       0.042367
     54 H22          2.7060    -0.0950    -3.3830 hc         1 4OR       0.042367
     55 H23          0.4650     2.9530     1.2940 ha         1 4OR       0.145000
     56 H24          4.4450     4.5440     1.3330 ha         1 4OR       0.132000
     57 H25          0.2460    -2.0440    -1.0750 hn         1 4OR       0.499000
     58 H26         -1.0760     0.4410    -1.6640 h1         1 4OR       0.085700
     59 H27         -1.9870    -2.4680    -1.6530 hc         1 4OR       0.056200
     60 H28         -1.7620    -1.4350    -3.0690 hc         1 4OR       0.056200
     61 H29         -5.6980    -0.1510    -1.3290 hn         1 4OR       0.302500
@<TRIPOS>BOND
     1     1    18 1   
     2     1    19 1   
     3     1    33 1   
     4     1    34 1   
     5     2     3 ar  
     6     2    18 1   
     7     2    22 ar  
     8     3    26 ar  
     9     3    35 1   
    10     4    29 1   
    11     4    30 1   
    12     4    36 1   
    13     4    37 1   
    14     5    28 1   
    15     5    29 1   
    16     5    38 1   
    17     5    39 1   
    18     6    29 1   
    19     6    31 2   
    20     6    32 1   
    21     7     8 1   
    22     7     9 1   
    23     7    10 1   
    24     7    32 1   
    25     8    40 1   
    26     8    41 1   
    27     8    42 1   
    28     9    43 1   
    29     9    44 1   
    30     9    45 1   
    31    10    46 1   
    32    10    47 1   
    33    10    48 1   
    34    11    12 ar  
    35    11    16 ar  
    36    11    20 1   
    37    12    13 ar  
    38    12    49 1   
    39    13    14 ar  
    40    13    17 1   
    41    14    15 ar  
    42    14    50 1   
    43    15    16 ar  
    44    15    51 1   
    45    16    18 1   
    46    19    52 1   
    47    19    53 1   
    48    19    54 1   
    49    20    21 2   
    50    20    27 1   
    51    21    22 1   
    52    22    23 ar  
    53    23    24 ar  
    54    23    55 1   
    55    24    25 1   
    56    24    26 ar  
    57    26    56 1   
    58    27    28 1   
    59    27    57 1   
    60    28    30 1   
    61    28    58 1   
    62    30    59 1   
    63    30    60 1   
    64    32    61 1   
@<TRIPOS>SUBSTRUCTURE
     1 4OR         1 TEMP              0 ****  ****    0 ROOT
