@<TRIPOS>MOLECULE
4OR
   61    64     1     0     0
SMALL
No Charge or Current Charge


@<TRIPOS>ATOM
      1 C1           3.9410     0.8050    -2.4310 c3         1 4OR       0.108600
      2 C2           3.4550     1.6550    -0.1410 ca         1 4OR      -0.032200
      3 C3           4.4670     2.6020     0.1160 ca         1 4OR      -0.088000
      4 C11         -3.3760    -0.7540    -1.7270 c5         1 4OR       0.109000
      5 C12         -2.0840    -0.1910     0.3000 c5         1 4OR       0.106000
      6 C13         -4.6010     0.0090     0.3830 c          1 4OR       0.666100
      7 C14         -7.1350     0.1340     0.0970 c3         1 4OR       0.152400
      8 C15         -7.3090     1.6140     0.5190 c3         1 4OR      -0.104100
      9 C16         -7.5110    -0.8140     1.2640 c3         1 4OR      -0.104100
     10 C17         -8.0600    -0.1580    -1.1080 c3         1 4OR      -0.104100
     11 C18          2.4190    -1.0960     0.0080 ca         1 4OR      -0.242500
     12 C19          2.3310    -2.3760     0.6080 ca         1 4OR      -0.071000
     13 C20          3.4680    -3.1920     0.7260 ca         1 4OR       0.095000
     14 C21          4.7100    -2.7450     0.2510 ca         1 4OR      -0.070000
     15 C22          4.8100    -1.4730    -0.3360 ca         1 4OR      -0.133000
     16 C23          3.6680    -0.6610    -0.4540 ca         1 4OR       0.092800
     17 Cl           3.3350    -4.7790     1.4740 cl         1 4OR      -0.195000
     18 N            3.7630     0.6010    -0.9820 na         1 4OR      -0.235600
     19 C            2.6100     0.7900    -3.2050 c3         1 4OR      -0.119100
     20 C8           1.2160    -0.2700    -0.1400 cc         1 4OR       0.527400
     21 N1           1.0290     0.9840     0.2540 nd         1 4OR      -0.493000
     22 C7           2.1610     1.8060     0.4440 ca         1 4OR       0.287000
     23 C6           1.9200     2.9580     1.2160 ca         1 4OR      -0.145000
     24 C5           2.9300     3.8960     1.4620 ca         1 4OR       0.175000
     25 F            2.6680     4.9800     2.2240 f          1 4OR      -0.180000
     26 C4           4.2070     3.7190     0.9230 ca         1 4OR      -0.162000
     27 N2           0.0880    -0.9290    -0.5550 nu         1 4OR      -0.943100
     28 C9          -1.1710    -0.2440    -0.9600 c5         1 4OR       0.222500
     29 N3          -3.4260    -0.3030    -0.3150 n          1 4OR      -0.447800
     30 C10         -1.9180    -1.2740    -1.8410 c5         1 4OR      -0.110400
     31 O           -4.5740     0.3660     1.5500 o          1 4OR      -0.645100
     32 N4          -5.7590    -0.1180    -0.3500 ns         1 4OR      -0.525900
     33 H1           4.4430     1.7670    -2.5970 h1         1 4OR       0.043700
     34 H2           4.5950     0.0160    -2.8240 h1         1 4OR       0.043700
     35 H3           5.4560     2.4740    -0.3190 ha         1 4OR       0.116000
     36 H4          -4.1030    -1.5480    -1.9430 h1         1 4OR       0.042200
     37 H5          -3.5580     0.0880    -2.4080 h1         1 4OR       0.042200
     38 H6          -1.9040    -1.0330     0.9820 h1         1 4OR       0.065200
     39 H7          -1.9510     0.7460     0.8570 h1         1 4OR       0.065200
     40 H8          -6.7150     1.8540     1.4080 hc         1 4OR       0.043589
     41 H9          -7.0000     2.2890    -0.2880 hc         1 4OR       0.043589
     42 H10         -8.3580     1.8290     0.7570 hc         1 4OR       0.043589
     43 H11         -8.5680    -0.6980     1.5310 hc         1 4OR       0.043589
     44 H12         -7.3450    -1.8610     0.9840 hc         1 4OR       0.043589
     45 H13         -6.9200    -0.6040     2.1620 hc         1 4OR       0.043589
     46 H14         -7.8160     0.4930    -1.9560 hc         1 4OR       0.043589
     47 H15         -7.9570    -1.1990    -1.4380 hc         1 4OR       0.043589
     48 H16         -9.1110     0.0100    -0.8450 hc         1 4OR       0.043589
     49 H17          1.3800    -2.7400     0.9920 ha         1 4OR       0.134000
     50 H18          5.5900    -3.3770     0.3450 ha         1 4OR       0.133000
     51 H19          5.7730    -1.1150    -0.6910 ha         1 4OR       0.127000
     52 H20          1.9430     1.5810    -2.8410 hc         1 4OR       0.042367
     53 H21          2.7890     0.9540    -4.2730 hc         1 4OR       0.042367
     54 H22          2.1030    -0.1750    -3.0840 hc         1 4OR       0.042367
     55 H23          0.9340     3.1210     1.6420 ha         1 4OR       0.145000
     56 H24          4.9870     4.4510     1.1180 ha         1 4OR       0.132000
     57 H25          0.2850    -1.8710    -0.8840 hn         1 4OR       0.499000
     58 H26         -1.0510     0.7340    -1.4510 h1         1 4OR       0.085700
     59 H27         -1.8490    -2.2940    -1.4440 hc         1 4OR       0.056200
     60 H28         -1.5570    -1.2920    -2.8750 hc         1 4OR       0.056200
     61 H29         -5.6330    -0.4170    -1.3060 hn         1 4OR       0.302500
@<TRIPOS>BOND
     1     1    18 1   
     2     1    19 1   
     3     1    33 1   
     4     1    34 1   
     5     2     3 ar  
     6     2    18 1   
     7     2    22 ar  
     8     3    26 ar  
     9     3    35 1   
    10     4    29 1   
    11     4    30 1   
    12     4    36 1   
    13     4    37 1   
    14     5    28 1   
    15     5    29 1   
    16     5    38 1   
    17     5    39 1   
    18     6    29 1   
    19     6    31 2   
    20     6    32 1   
    21     7     8 1   
    22     7     9 1   
    23     7    10 1   
    24     7    32 1   
    25     8    40 1   
    26     8    41 1   
    27     8    42 1   
    28     9    43 1   
    29     9    44 1   
    30     9    45 1   
    31    10    46 1   
    32    10    47 1   
    33    10    48 1   
    34    11    12 ar  
    35    11    16 ar  
    36    11    20 1   
    37    12    13 ar  
    38    12    49 1   
    39    13    14 ar  
    40    13    17 1   
    41    14    15 ar  
    42    14    50 1   
    43    15    16 ar  
    44    15    51 1   
    45    16    18 1   
    46    19    52 1   
    47    19    53 1   
    48    19    54 1   
    49    20    21 2   
    50    20    27 1   
    51    21    22 1   
    52    22    23 ar  
    53    23    24 ar  
    54    23    55 1   
    55    24    25 1   
    56    24    26 ar  
    57    26    56 1   
    58    27    28 1   
    59    27    57 1   
    60    28    30 1   
    61    28    58 1   
    62    30    59 1   
    63    30    60 1   
    64    32    61 1   
@<TRIPOS>SUBSTRUCTURE
     1 4OR         1 TEMP              0 ****  ****    0 ROOT
