@<TRIPOS>MOLECULE
4OS
   19    19     1     0     0
SMALL
No Charge or Current Charge


@<TRIPOS>ATOM
      1 S            2.3420     0.0830    -0.0230 s6         1 4OS       1.265100
      2 OB1          2.7430    -1.1500    -0.7160 o          1 4OS      -0.696533
      3 OB2          2.5660     1.3430    -0.7490 o          1 4OS      -0.696533
      4 CG           0.4970    -0.0470    -0.0280 ca         1 4OS      -0.257500
      5 CD1         -0.1280    -1.3110    -0.0070 ca         1 4OS       0.009500
      6 CD2         -0.3000     1.1160    -0.0290 ca         1 4OS       0.009500
      7 CE1         -1.5310    -1.4060    -0.0010 ca         1 4OS      -0.207500
      8 CE2         -1.7030     1.0180    -0.0230 ca         1 4OS      -0.207500
      9 CZ          -2.3240    -0.2490    -0.0100 ca         1 4OS       0.134100
     10 OH          -3.6940    -0.4060    -0.0030 os         1 4OS      -0.356100
     11 CH          -4.5940     0.7160    -0.0120 c3         1 4OS       0.156900
     12 HD1          0.4690    -2.2210     0.0070 ha         1 4OS       0.127500
     13 HD2          0.1650     2.1000    -0.0320 ha         1 4OS       0.127500
     14 HE1         -2.0040    -2.3840     0.0130 ha         1 4OS       0.100000
     15 HE2         -2.2860     1.9330    -0.0260 ha         1 4OS       0.100000
     16 HH1         -4.4400     1.3460     0.8740 h1         1 4OS       0.029367
     17 HH2         -4.4450     1.3290    -0.9100 h1         1 4OS       0.029367
     18 HH3         -5.6350     0.3690    -0.0050 h1         1 4OS       0.029367
     19 OXT          2.6190     0.1220     1.4210 o          1 4OS      -0.696533
@<TRIPOS>BOND
     1     1     2 1   
     2     1     3 1   
     3     1     4 1   
     4     1    19 1   
     5     4     5 ar  
     6     4     6 ar  
     7     5     7 ar  
     8     5    12 1   
     9     6     8 ar  
    10     6    13 1   
    11     7     9 ar  
    12     7    14 1   
    13     8     9 ar  
    14     8    15 1   
    15     9    10 1   
    16    10    11 1   
    17    11    16 1   
    18    11    17 1   
    19    11    18 1   
@<TRIPOS>SUBSTRUCTURE
     1 4OS         1 TEMP              0 ****  ****    0 ROOT
