@<TRIPOS>MOLECULE
4OS
   19    19     1     0     0
SMALL
abcg2


@<TRIPOS>ATOM
      1 S            2.2340     0.0830     0.0010 s6         1 4OS       1.265100
      2 OB1          2.7410    -1.1270    -0.6690 o          1 4OS      -0.696533
      3 OB2          2.5610     1.3300    -0.7130 o          1 4OS      -0.696533
      4 CG           0.4540    -0.0440    -0.0520 ca         1 4OS      -0.257500
      5 CD1         -0.1640    -1.2910    -0.0270 ca         1 4OS       0.009500
      6 CD2         -0.3280     1.1000    -0.0550 ca         1 4OS       0.009500
      7 CE1         -1.5420    -1.3890    -0.0080 ca         1 4OS      -0.207500
      8 CE2         -1.7140     1.0150    -0.0340 ca         1 4OS      -0.207500
      9 CZ          -2.3310    -0.2350    -0.0090 ca         1 4OS       0.134100
     10 OH          -3.6610    -0.4240     0.0110 os         1 4OS      -0.356100
     11 CH          -4.5080     0.7100     0.0050 c3         1 4OS       0.156900
     12 HD1          0.4290    -2.1960    -0.0340 ha         1 4OS       0.127500
     13 HD2          0.1330     2.0780    -0.0840 ha         1 4OS       0.127500
     14 HE1         -2.0200    -2.3610     0.0040 ha         1 4OS       0.100000
     15 HE2         -2.2930     1.9280    -0.0420 ha         1 4OS       0.100000
     16 HH1         -4.3490     1.3420     0.8820 h1         1 4OS       0.029367
     17 HH2         -4.3730     1.3160    -0.8940 h1         1 4OS       0.029367
     18 HH3         -5.5270     0.3330     0.0240 h1         1 4OS       0.029367
     19 OXT          2.5750     0.1330     1.4350 o          1 4OS      -0.696533
@<TRIPOS>BOND
     1     1     2 1   
     2     1     3 1   
     3     1     4 1   
     4     1    19 1   
     5     4     5 ar  
     6     4     6 ar  
     7     5     7 ar  
     8     5    12 1   
     9     6     8 ar  
    10     6    13 1   
    11     7     9 ar  
    12     7    14 1   
    13     8     9 ar  
    14     8    15 1   
    15     9    10 1   
    16    10    11 1   
    17    11    16 1   
    18    11    17 1   
    19    11    18 1   
@<TRIPOS>SUBSTRUCTURE
     1 4OS         1 TEMP              0 ****  ****    0 ROOT
