@<TRIPOS>MOLECULE
4OT
   53    57     1     0     0
SMALL
No Charge or Current Charge


@<TRIPOS>ATOM
      1 C1           2.0770     3.5990    -0.2880 c3         1 4OT      -0.106700
      2 C2           0.5840     3.4410    -0.2800 cc         1 4OT       0.424300
      3 N3          -0.2950     4.0960     0.4610 nd         1 4OT      -0.352000
      4 N4          -1.5110     3.5080     0.2070 nd         1 4OT      -0.360000
      5 C5          -1.2760     2.5420    -0.6700 cc         1 4OT       0.488500
      6 O6           0.0220     2.4830    -1.0550 os         1 4OT      -0.271000
      7 C7          -2.2170     1.5370    -1.1810 ca         1 4OT      -0.134500
      8 C8           2.8400     2.5680     0.5890 c5         1 4OT       0.107700
      9 C12          1.0940    -0.8280    -0.1710 cc         1 4OT       0.233500
     10 N12          2.6020     1.1540     0.1850 n          1 4OT      -0.398800
     11 C13          3.8550     0.4640    -0.1900 c5         1 4OT       0.109000
     12 C14          4.8800     1.2650     0.6440 c5         1 4OT      -0.101400
     13 O23          0.7340     0.9210     1.4790 o          1 4OT      -0.578100
     14 C24          4.3820     2.7070     0.3960 c5         1 4OT      -0.091400
     15 C26          1.1480    -2.2650    -1.8730 cd         1 4OT       0.424700
     16 N27          1.7070    -1.1830    -1.3660 nc         1 4OT      -0.633000
     17 C28          0.0270    -1.6500     0.1940 cd         1 4OT      -0.123000
     18 S29         -0.2070    -2.9310    -0.9940 ss         1 4OT       0.007600
     19 C30         -0.6290    -1.7930     1.5170 ca         1 4OT      -0.056000
     20 C34          0.1080    -1.6150     2.7100 ca         1 4OT      -0.056000
     21 C35         -0.4990    -1.7860     3.9670 ca         1 4OT      -0.125000
     22 C36         -1.8520    -2.1450     4.0550 ca         1 4OT      -0.071000
     23 C37         -2.5950    -2.3410     2.8810 ca         1 4OT      -0.150000
     24 C38         -1.9900    -2.1750     1.6240 ca         1 4OT       0.193000
     25 F39         -2.7530    -2.3400     0.5210 f          1 4OT      -0.172000
     26 C44         -1.7800     0.5240    -2.0660 ca         1 4OT      -0.067500
     27 C45         -2.6760    -0.4570    -2.5260 ca         1 4OT      -0.122500
     28 C46         -4.0160    -0.4400    -2.1090 ca         1 4OT      -0.090000
     29 C47         -4.4600     0.5600    -1.2290 ca         1 4OT      -0.122500
     30 C48         -3.5680     1.5420    -0.7660 ca         1 4OT      -0.067500
     31 H1           2.4180     3.5240    -1.3270 hc         1 4OT       0.074700
     32 H2           2.3290     4.6140     0.0400 hc         1 4OT       0.074700
     33 H3           2.5690     2.7170     1.6450 h1         1 4OT       0.084700
     34 H4           3.8610    -0.5980     0.0890 h1         1 4OT       0.058700
     35 H5           4.0440     0.5490    -1.2690 h1         1 4OT       0.058700
     36 H6           4.8300     0.9980     1.7060 hc         1 4OT       0.054200
     37 H7           5.9110     1.1060     0.3080 hc         1 4OT       0.054200
     38 H8           4.6420     3.0320    -0.6190 hc         1 4OT       0.054700
     39 H9           4.8240     3.4310     1.0890 hc         1 4OT       0.054700
     40 H10          1.2200    -3.8560    -3.3220 hc         1 4OT       0.059700
     41 H11          1.2990    -2.2260    -4.0150 hc         1 4OT       0.059700
     42 H12          2.7150    -2.9130    -3.1970 hc         1 4OT       0.059700
     43 H13          1.1670    -1.3700     2.6710 ha         1 4OT       0.116000
     44 H14          0.0850    -1.6450     4.8740 ha         1 4OT       0.121000
     45 H15         -2.3210    -2.2760     5.0280 ha         1 4OT       0.120000
     46 H16         -3.6440    -2.6180     2.9410 ha         1 4OT       0.135000
     47 H17         -0.7450     0.4870    -2.3990 ha         1 4OT       0.137000
     48 H18         -2.3290    -1.2320    -3.2050 ha         1 4OT       0.113500
     49 H19         -4.7070    -1.2010    -2.4640 ha         1 4OT       0.112000
     50 H20         -5.4980     0.5730    -0.9020 ha         1 4OT       0.113500
     51 H21         -3.9290     2.3050    -0.0780 ha         1 4OT       0.137000
     52 C11          1.4390     0.4440     0.5950 c          1 4OT       0.539600
     53 C25          1.6210    -2.8470    -3.1720 c3         1 4OT      -0.130400
@<TRIPOS>BOND
     1     1     2 1   
     2     1     8 1   
     3     1    31 1   
     4     1    32 1   
     5     2     3 2   
     6     2     6 1   
     7     3     4 1   
     8     4     5 2   
     9     5     6 1   
    10     5     7 1   
    11     7    26 ar  
    12     7    30 ar  
    13     8    10 1   
    14     8    14 1   
    15     8    33 1   
    16     9    16 1   
    17     9    17 2   
    18     9    52 1   
    19    10    11 1   
    20    10    52 1   
    21    11    12 1   
    22    11    34 1   
    23    11    35 1   
    24    12    14 1   
    25    12    36 1   
    26    12    37 1   
    27    13    52 2   
    28    14    38 1   
    29    14    39 1   
    30    15    16 2   
    31    15    18 1   
    32    15    53 1   
    33    17    18 1   
    34    17    19 1   
    35    19    20 ar  
    36    19    24 ar  
    37    20    21 ar  
    38    20    43 1   
    39    21    22 ar  
    40    21    44 1   
    41    22    23 ar  
    42    22    45 1   
    43    23    24 ar  
    44    23    46 1   
    45    24    25 1   
    46    26    27 ar  
    47    26    47 1   
    48    27    28 ar  
    49    27    48 1   
    50    28    29 ar  
    51    28    49 1   
    52    29    30 ar  
    53    29    50 1   
    54    30    51 1   
    55    40    53 1   
    56    41    53 1   
    57    42    53 1   
@<TRIPOS>SUBSTRUCTURE
     1 4OT         1 TEMP              0 ****  ****    0 ROOT
