@<TRIPOS>MOLECULE
4OT
   53    57     1     0     0
SMALL
abcg2


@<TRIPOS>ATOM
      1 C1           1.9200     3.4810    -0.0920 c3         1 4OT      -0.106700
      2 C2           0.4630     3.4090    -0.3240 cc         1 4OT       0.424300
      3 N3          -0.4880     4.0770     0.2260 nd         1 4OT      -0.352000
      4 N4          -1.6600     3.5890    -0.2860 nd         1 4OT      -0.360000
      5 C5          -1.3430     2.6620    -1.1220 cc         1 4OT       0.488500
      6 O6          -0.0130     2.5160    -1.2060 os         1 4OT      -0.271000
      7 C7          -2.2130     1.8150    -1.9200 ca         1 4OT      -0.134500
      8 C8           2.4620     2.3890     0.8450 c5         1 4OT       0.107700
      9 C12          0.8040    -0.9110     0.0160 cc         1 4OT       0.233500
     10 N12          2.1830     1.0410     0.3550 n          1 4OT      -0.398800
     11 C13          3.4010     0.3850    -0.1080 c5         1 4OT       0.109000
     12 C14          4.4620     1.0040     0.7910 c5         1 4OT      -0.101400
     13 O23          0.1170     0.9670     1.2660 o          1 4OT      -0.578100
     14 C24          3.9980     2.4520     0.9250 c5         1 4OT      -0.091400
     15 C26          0.7010    -2.2880    -1.7000 cd         1 4OT       0.424700
     16 N27          1.0490    -1.1040    -1.3120 nc         1 4OT      -0.633000
     17 C28          0.2650    -1.9730     0.6820 cd         1 4OT      -0.123000
     18 S29          0.0560    -3.2700    -0.4330 ss         1 4OT       0.007600
     19 C30         -0.0290    -2.0990     2.1080 ca         1 4OT      -0.056000
     20 C34          0.9040    -1.7080     3.0700 ca         1 4OT      -0.056000
     21 C35          0.6240    -1.8100     4.4220 ca         1 4OT      -0.125000
     22 C36         -0.6000    -2.3180     4.8390 ca         1 4OT      -0.071000
     23 C37         -1.5420    -2.7250     3.9050 ca         1 4OT      -0.150000
     24 C38         -1.2380    -2.6080     2.5640 ca         1 4OT       0.193000
     25 F39         -2.1480    -2.9970     1.6590 f          1 4OT      -0.172000
     26 C44         -1.7020     0.7240    -2.6230 ca         1 4OT      -0.067500
     27 C45         -2.5550    -0.0830    -3.3590 ca         1 4OT      -0.122500
     28 C46         -3.9150     0.1900    -3.4040 ca         1 4OT      -0.090000
     29 C47         -4.4250     1.2780    -2.7050 ca         1 4OT      -0.122500
     30 C48         -3.5810     2.0880    -1.9650 ca         1 4OT      -0.067500
     31 H1           2.4430     3.4270    -1.0500 hc         1 4OT       0.074700
     32 H2           2.1490     4.4530     0.3470 hc         1 4OT       0.074700
     33 H3           2.0130     2.5150     1.8310 h1         1 4OT       0.084700
     34 H4           3.3370    -0.6950    -0.0030 h1         1 4OT       0.058700
     35 H5           3.5880     0.6120    -1.1610 h1         1 4OT       0.058700
     36 H6           4.4580     0.5030     1.7610 hc         1 4OT       0.054200
     37 H7           5.4640     0.9180     0.3730 hc         1 4OT       0.054200
     38 H8           4.3930     3.0490     0.1000 hc         1 4OT       0.054700
     39 H9           4.3300     2.9190     1.8510 hc         1 4OT       0.054700
     40 H10         -0.1660    -3.0630    -3.4950 hc         1 4OT       0.059700
     41 H11          1.2380    -2.0120    -3.7260 hc         1 4OT       0.059700
     42 H12          1.4480    -3.6720    -3.1510 hc         1 4OT       0.059700
     43 H13          1.8680    -1.3350     2.7470 ha         1 4OT       0.116000
     44 H14          1.3630    -1.5030     5.1490 ha         1 4OT       0.121000
     45 H15         -0.8250    -2.4050     5.8940 ha         1 4OT       0.120000
     46 H16         -2.5000    -3.1250     4.2110 ha         1 4OT       0.135000
     47 H17         -0.6460     0.4900    -2.5870 ha         1 4OT       0.137000
     48 H18         -2.1540    -0.9310    -3.8990 ha         1 4OT       0.113500
     49 H19         -4.5760    -0.4410    -3.9820 ha         1 4OT       0.112000
     50 H20         -5.4840     1.4970    -2.7380 ha         1 4OT       0.113500
     51 H21         -3.9810     2.9360    -1.4240 ha         1 4OT       0.137000
     52 C11          1.0090     0.4420     0.6140 c          1 4OT       0.539600
     53 C25          0.8110    -2.7890    -3.0950 c3         1 4OT      -0.130400
@<TRIPOS>BOND
     1     1     2 1   
     2     1     8 1   
     3     1    31 1   
     4     1    32 1   
     5     2     3 2   
     6     2     6 1   
     7     3     4 1   
     8     4     5 2   
     9     5     6 1   
    10     5     7 1   
    11     7    26 ar  
    12     7    30 ar  
    13     8    10 1   
    14     8    14 1   
    15     8    33 1   
    16     9    16 1   
    17     9    17 2   
    18     9    52 1   
    19    10    11 1   
    20    10    52 1   
    21    11    12 1   
    22    11    34 1   
    23    11    35 1   
    24    12    14 1   
    25    12    36 1   
    26    12    37 1   
    27    13    52 2   
    28    14    38 1   
    29    14    39 1   
    30    15    16 2   
    31    15    18 1   
    32    15    53 1   
    33    17    18 1   
    34    17    19 1   
    35    19    20 ar  
    36    19    24 ar  
    37    20    21 ar  
    38    20    43 1   
    39    21    22 ar  
    40    21    44 1   
    41    22    23 ar  
    42    22    45 1   
    43    23    24 ar  
    44    23    46 1   
    45    24    25 1   
    46    26    27 ar  
    47    26    47 1   
    48    27    28 ar  
    49    27    48 1   
    50    28    29 ar  
    51    28    49 1   
    52    29    30 ar  
    53    29    50 1   
    54    30    51 1   
    55    40    53 1   
    56    41    53 1   
    57    42    53 1   
@<TRIPOS>SUBSTRUCTURE
     1 4OT         1 TEMP              0 ****  ****    0 ROOT
