@<TRIPOS>MOLECULE
4OU
   30    30     1     0     0
SMALL
abcg2


@<TRIPOS>ATOM
      1 C9         -14.4500    11.0170   -25.2740 ca         1 4OU      -0.041300
      2 C10        -14.1160    10.6320   -26.5670 ca         1 4OU      -0.087000
      3 C12        -16.2920     9.6740   -26.9410 ca         1 4OU      -0.061000
      4 C13        -16.6410    10.0530   -25.6420 ca         1 4OU      -0.148500
      5 C14        -15.7340    10.7080   -24.8290 ca         1 4OU      -0.087000
      6 C16        -17.2810     8.7040   -29.0120 c          1 4OU       0.601300
      7 C18        -18.5100     7.9840   -29.4360 ce         1 4OU      -0.293200
      8 C19        -18.6710     7.5620   -30.6850 c2         1 4OU      -0.247000
      9 O17        -16.3860     8.9920   -29.7890 o          1 4OU      -0.592100
     10 N15        -17.2650     8.9970   -27.6860 ns         1 4OU      -0.135000
     11 C11        -15.0080     9.9680   -27.3990 ca         1 4OU      -0.148500
     12 CB         -13.4890    11.7540   -24.3890 c3         1 4OU      -0.019100
     13 CA         -13.7570    13.2660   -24.3280 c3         1 4OU       0.015500
     14 N          -13.6680    13.8360   -25.6620 n8         1 4OU      -0.994200
     15 C          -12.8360    13.9080   -23.2520 c          1 4OU       0.693000
     16 O          -13.0230    13.5210   -22.0790 o          1 4OU      -0.732500
     17 H1         -13.1230    10.8470   -26.9440 ha         1 4OU       0.114500
     18 H2         -17.6320     9.8290   -25.2630 ha         1 4OU       0.111000
     19 H3         -16.0350    10.9840   -23.8250 ha         1 4OU       0.114500
     20 H4         -19.2830     7.8020   -28.6960 ha         1 4OU       0.171000
     21 H5         -19.5670     7.0370   -30.9850 ha         1 4OU       0.171000
     22 H6         -17.9180     7.7240   -31.4450 ha         1 4OU       0.171000
     23 H7         -18.0850     8.7280   -27.1630 hn         1 4OU       0.140000
     24 H8         -14.6940     9.6850   -28.3900 ha         1 4OU       0.111000
     25 H9         -13.5440    11.3560   -23.3750 hc         1 4OU       0.051200
     26 H10        -12.4650    11.5880   -24.7400 hc         1 4OU       0.051200
     27 H11        -14.7910    13.3980   -23.9850 h1         1 4OU       0.039700
     28 H          -13.9140    14.8170   -25.6100 hn         1 4OU       0.381500
     29 HN         -12.6920    13.8370   -25.9390 hn         1 4OU       0.381500
     30 OXT        -11.9940    14.7400   -23.6400 o          1 4OU      -0.732500
@<TRIPOS>BOND
     1     1     2 ar  
     2     1     5 ar  
     3     1    12 1   
     4     2    11 ar  
     5     2    17 1   
     6     3     4 ar  
     7     3    10 1   
     8     3    11 ar  
     9     4     5 ar  
    10     4    18 1   
    11     5    19 1   
    12     6     7 1   
    13     6     9 2   
    14     6    10 1   
    15     7     8 2   
    16     7    20 1   
    17     8    21 1   
    18     8    22 1   
    19    10    23 1   
    20    11    24 1   
    21    12    13 1   
    22    12    25 1   
    23    12    26 1   
    24    13    14 1   
    25    13    15 1   
    26    13    27 1   
    27    14    28 1   
    28    14    29 1   
    29    15    16 1   
    30    15    30 1   
@<TRIPOS>SUBSTRUCTURE
     1 4OU         1 TEMP              0 ****  ****    0 ROOT
