@<TRIPOS>MOLECULE
4OU
   30    30     1     0     0
SMALL
No Charge or Current Charge


@<TRIPOS>ATOM
      1 C9         -14.4030    11.0730   -25.3810 ca         1 4OU      -0.041300
      2 C10        -14.0510    10.6760   -26.6850 ca         1 4OU      -0.087000
      3 C12        -16.2790     9.7260   -27.0320 ca         1 4OU      -0.061000
      4 C13        -16.6250    10.1220   -25.7260 ca         1 4OU      -0.148500
      5 C14        -15.6970    10.7870   -24.9060 ca         1 4OU      -0.087000
      6 C16        -17.2690     8.5290   -29.0880 c          1 4OU       0.601300
      7 C18        -18.5730     7.9070   -29.4800 ce         1 4OU      -0.293200
      8 C19        -18.8160     7.3190   -30.6780 c2         1 4OU      -0.247000
      9 O17        -16.3100     8.5530   -29.8510 o          1 4OU      -0.592100
     10 N15        -17.2720     9.0570   -27.8010 ns         1 4OU      -0.135000
     11 C11        -14.9790    10.0100   -27.5060 ca         1 4OU      -0.148500
     12 CB         -13.3900    11.7790   -24.4810 c3         1 4OU      -0.019100
     13 CA         -13.7310    13.2660   -24.1860 c3         1 4OU       0.015500
     14 N          -13.7510    14.0840   -25.4570 n8         1 4OU      -0.994200
     15 C          -12.8020    13.8110   -23.0250 c          1 4OU       0.693000
     16 O          -13.3090    14.0310   -21.9330 o          1 4OU      -0.732500
     17 H1         -13.0550    10.8870   -27.0670 ha         1 4OU       0.114500
     18 H2         -17.6200     9.9110   -25.3400 ha         1 4OU       0.111000
     19 H3         -15.9830    11.0800   -23.8990 ha         1 4OU       0.114500
     20 H4         -19.3590     7.9450   -28.7250 ha         1 4OU       0.171000
     21 H5         -19.7870     6.8790   -30.9150 ha         1 4OU       0.171000
     22 H6         -18.0550     7.2600   -31.4590 ha         1 4OU       0.171000
     23 H7         -18.1520     8.9440   -27.3150 hn         1 4OU       0.140000
     24 H8         -14.6660     9.7260   -28.5050 ha         1 4OU       0.111000
     25 H9         -13.3350    11.2420   -23.5260 hc         1 4OU       0.051200
     26 H10        -12.3830    11.7190   -24.9120 hc         1 4OU       0.051200
     27 H11        -14.7550    13.2870   -23.7880 h1         1 4OU       0.039700
     28 H          -14.0320    15.0460   -25.2300 hn         1 4OU       0.381500
     29 HN         -12.7830    14.1960   -25.7830 hn         1 4OU       0.381500
     30 OXT        -11.6420    14.0960   -23.2920 o          1 4OU      -0.732500
@<TRIPOS>BOND
     1     1     2 ar  
     2     1     5 ar  
     3     1    12 1   
     4     2    11 ar  
     5     2    17 1   
     6     3     4 ar  
     7     3    10 1   
     8     3    11 ar  
     9     4     5 ar  
    10     4    18 1   
    11     5    19 1   
    12     6     7 1   
    13     6     9 2   
    14     6    10 1   
    15     7     8 2   
    16     7    20 1   
    17     8    21 1   
    18     8    22 1   
    19    10    23 1   
    20    11    24 1   
    21    12    13 1   
    22    12    25 1   
    23    12    26 1   
    24    13    14 1   
    25    13    15 1   
    26    13    27 1   
    27    14    28 1   
    28    14    29 1   
    29    15    16 1   
    30    15    30 1   
@<TRIPOS>SUBSTRUCTURE
     1 4OU         1 TEMP              0 ****  ****    0 ROOT
