@<TRIPOS>MOLECULE
4OV
   53    54     1     0     0
SMALL
No Charge or Current Charge


@<TRIPOS>ATOM
      1 C14        -17.2100    11.3990   -19.5260 c          1 4OV       0.719200
      2 C16        -14.9390     7.1640   -17.3840 c          1 4OV       0.603100
      3 C13        -19.7210     9.9270   -20.7350 c3         1 4OV      -0.006900
      4 C8         -18.2340     6.3780   -17.1530 c          1 4OV       0.612100
      5 C3         -22.2970     8.3270   -18.9750 ca         1 4OV      -0.114500
      6 C2         -22.5780     7.2040   -19.7690 ca         1 4OV      -0.117000
      7 S1         -16.7500     7.0520   -21.1440 ss         1 4OV      -0.538000
      8 C6         -20.9360     5.9140   -18.5160 ca         1 4OV      -0.091500
      9 C4         -21.3310     8.2490   -17.9580 ca         1 4OV      -0.091500
     10 C7         -19.5920     6.9660   -16.6120 c3         1 4OV       0.121800
     11 C11        -18.3910     9.2580   -20.4120 c2         1 4OV      -0.279400
     12 O2         -18.1580    12.1490   -19.7200 o          1 4OV      -0.711000
     13 O3         -16.1550    11.8130   -19.0510 o          1 4OV      -0.711000
     14 C12        -17.2930     9.8790   -19.8820 ce         1 4OV       0.069800
     15 N3         -16.0780     9.1760   -19.5910 nu         1 4OV      -0.826200
     16 C10        -18.3890     7.7780   -20.7630 c6         1 4OV       0.147800
     17 C9         -15.8110     7.7360   -19.7170 c6         1 4OV       0.394500
     18 C15        -16.0930     6.9610   -18.3900 c3         1 4OV       0.044700
     19 CB         -12.5600     6.7440   -17.0700 c3         1 4OV       0.189600
     20 CA         -12.4120     5.4020   -16.2900 c3         1 4OV      -0.014500
     21 C          -11.0050     5.4080   -15.5810 c          1 4OV       0.697000
     22 O          -10.1730     4.5860   -15.9380 o          1 4OV      -0.736500
     23 N          -13.5970     5.0680   -15.4000 n8         1 4OV      -0.985200
     24 N2         -17.4020     7.2900   -17.7650 ns         1 4OV      -0.465900
     25 O1         -17.9240     5.1950   -17.0500 o          1 4OV      -0.598100
     26 N1         -20.1900     6.2760   -15.4220 n8         1 4OV      -0.966200
     27 C5         -20.6410     7.0420   -17.7210 ca         1 4OV      -0.121300
     28 C1         -21.8970     5.9970   -19.5390 ca         1 4OV      -0.114500
     29 H1         -20.1480    10.4110   -19.8480 hc         1 4OV       0.021700
     30 H2         -19.6020    10.6850   -21.5180 hc         1 4OV       0.021700
     31 H3         -20.4730     9.2130   -21.0930 hc         1 4OV       0.021700
     32 H5         -23.3220     7.2670   -20.5590 ha         1 4OV       0.099000
     33 H6         -20.4210     4.9700   -18.3470 ha         1 4OV       0.123000
     34 H7         -21.1210     9.1290   -17.3540 ha         1 4OV       0.123000
     35 H8         -19.3570     7.9930   -16.2980 h1         1 4OV       0.084700
     36 H11        -19.0170     7.6000   -21.6480 h1         1 4OV       0.047700
     37 H12        -18.8350     7.2010   -19.9430 h1         1 4OV       0.047700
     38 H13        -14.7530     7.5700   -19.9800 h2         1 4OV       0.087700
     39 H14        -16.0730     5.8950   -18.6420 h1         1 4OV       0.104700
     40 H15        -11.6770     6.8570   -17.7120 h1         1 4OV       0.061700
     41 H16        -12.5650     7.5980   -16.3790 h1         1 4OV       0.061700
     42 H17        -12.3660     4.6070   -17.0460 h1         1 4OV       0.040700
     43 H          -13.4180     4.1790   -14.9170 hn         1 4OV       0.384500
     44 HN         -13.6370     5.7510   -14.6330 hn         1 4OV       0.384500
     45 H22        -17.7370     8.2420   -17.8530 hn         1 4OV       0.339500
     46 H23        -21.1070     6.6920   -15.2260 hn         1 4OV       0.393000
     47 H24        -20.4130     5.3090   -15.6850 hn         1 4OV       0.393000
     48 H26        -22.1160     5.1250   -20.1500 ha         1 4OV       0.105500
     49 OXT        -10.8320     6.1700   -14.6390 o          1 4OV      -0.736500
     50 H9         -15.3230     9.7750   -19.2400 hn         1 4OV       0.521000
     51 O4         -15.0480     7.7740   -16.3250 o          1 4OV      -0.484000
     52 H4         -22.8240     9.2620   -19.1520 ha         1 4OV       0.105500
     53 OG         -13.7470     6.7050   -17.8960 os         1 4OV      -0.461100
@<TRIPOS>BOND
     1     1    12 1   
     2     1    13 1   
     3     1    14 1   
     4     2    18 1   
     5     2    51 2   
     6     2    53 1   
     7     3    11 1   
     8     3    29 1   
     9     3    30 1   
    10     3    31 1   
    11     4    10 1   
    12     4    24 1   
    13     4    25 2   
    14     5     6 ar  
    15     5     9 ar  
    16     5    52 1   
    17     6    28 ar  
    18     6    32 1   
    19     7    16 1   
    20     7    17 1   
    21     8    27 ar  
    22     8    28 ar  
    23     8    33 1   
    24     9    27 ar  
    25     9    34 1   
    26    10    26 1   
    27    10    27 1   
    28    10    35 1   
    29    11    14 2   
    30    11    16 1   
    31    14    15 1   
    32    15    17 1   
    33    15    50 1   
    34    16    36 1   
    35    16    37 1   
    36    17    18 1   
    37    17    38 1   
    38    18    24 1   
    39    18    39 1   
    40    19    20 1   
    41    19    40 1   
    42    19    41 1   
    43    19    53 1   
    44    20    21 1   
    45    20    23 1   
    46    20    42 1   
    47    21    22 1   
    48    21    49 1   
    49    23    43 1   
    50    23    44 1   
    51    24    45 1   
    52    26    46 1   
    53    26    47 1   
    54    28    48 1   
@<TRIPOS>SUBSTRUCTURE
     1 4OV         1 TEMP              0 ****  ****    0 ROOT
