@<TRIPOS>MOLECULE
4OV
   53    54     1     0     0
SMALL
bcc


@<TRIPOS>ATOM
      1 C14        -16.7370    11.3830   -19.6870 c          1 4OV       0.929800
      2 C16        -15.1590     7.2340   -17.4190 c          1 4OV       0.652100
      3 C13        -19.4850    10.3440   -20.8280 c3         1 4OV      -0.006900
      4 C8         -18.1820     6.3090   -17.0680 c          1 4OV       0.679100
      5 C3         -22.1250     8.1270   -18.9560 ca         1 4OV      -0.132500
      6 C2         -22.4150     6.9910   -19.6990 ca         1 4OV      -0.135000
      7 S1         -17.0840     7.0800   -21.0910 ss         1 4OV      -0.442200
      8 C6         -20.8280     5.7420   -18.3880 ca         1 4OV      -0.109500
      9 C4         -21.1830     8.0700   -17.9360 ca         1 4OV      -0.109500
     10 C7         -19.5110     6.8180   -16.5120 c3         1 4OV       0.121800
     11 C11        -18.3220     9.4830   -20.4250 c2         1 4OV      -0.279400
     12 O2         -17.6140    12.2560   -19.6000 o          1 4OV      -0.816300
     13 O3         -15.5020    11.5620   -19.6100 o          1 4OV      -0.816300
     14 C12        -17.1520     9.9130   -19.9090 ce         1 4OV       0.069800
     15 N3         -16.1080     9.0790   -19.5330 nu         1 4OV      -0.771000
     16 C10        -18.5780     8.0320   -20.7080 c6         1 4OV       0.099900
     17 C9         -16.0210     7.6700   -19.7380 c6         1 4OV       0.346600
     18 C15        -16.2550     6.8920   -18.4300 c3         1 4OV       0.044700
     19 CB         -12.8470     6.8560   -16.9760 c3         1 4OV       0.166400
     20 CA         -12.6310     5.5060   -16.3050 c3         1 4OV      -0.014500
     21 C          -11.3210     5.5960   -15.4700 c          1 4OV       0.907600
     22 O          -10.2870     5.8400   -16.1250 o          1 4OV      -0.841800
     23 N          -13.8240     5.1060   -15.5820 n8         1 4OV      -0.874800
     24 N2         -17.5410     7.1790   -17.8710 ns         1 4OV      -0.532900
     25 O1         -17.7720     5.1830   -16.8430 o          1 4OV      -0.598100
     26 N1         -19.9010     6.0050   -15.3790 n8         1 4OV      -0.855800
     27 C5         -20.5250     6.8810   -17.6420 ca         1 4OV      -0.121300
     28 C1         -21.7610     5.7980   -19.4120 ca         1 4OV      -0.132500
     29 H1         -19.3640    11.3780   -20.5330 hc         1 4OV       0.021700
     30 H2         -19.6350    10.3030   -21.9110 hc         1 4OV       0.021700
     31 H3         -20.4090     9.9650   -20.3810 hc         1 4OV       0.021700
     32 H5         -23.1450     7.0330   -20.4970 ha         1 4OV       0.117000
     33 H6         -20.3250     4.8050   -18.1780 ha         1 4OV       0.141000
     34 H7         -20.9530     8.9630   -17.3670 ha         1 4OV       0.141000
     35 H8         -19.3550     7.8390   -16.1490 h1         1 4OV       0.084700
     36 H11        -19.2000     7.9430   -21.6040 h1         1 4OV       0.047700
     37 H12        -19.1340     7.5430   -19.9050 h1         1 4OV       0.047700
     38 H13        -15.0110     7.4270   -20.0770 h2         1 4OV       0.087700
     39 H14        -16.1890     5.8250   -18.6490 h1         1 4OV       0.104700
     40 H15        -11.9990     7.1060   -17.6090 h1         1 4OV       0.061700
     41 H16        -12.9740     7.6500   -16.2380 h1         1 4OV       0.061700
     42 H17        -12.4620     4.7700   -17.0990 h1         1 4OV       0.040700
     43 H          -13.7600     4.1180   -15.3710 hn         1 4OV       0.329300
     44 HN         -13.8140     5.5630   -14.6770 hn         1 4OV       0.329300
     45 H22        -17.8500     8.1410   -17.8850 hn         1 4OV       0.339500
     46 H23        -20.7930     6.3310   -15.0310 hn         1 4OV       0.337800
     47 H24        -20.0410     5.0450   -15.6690 hn         1 4OV       0.337800
     48 H26        -21.9800     4.9080   -19.9880 ha         1 4OV       0.123500
     49 OXT        -11.4170     5.4360   -14.2410 o          1 4OV      -0.841800
     50 H9         -15.2340     9.5890   -19.5410 hn         1 4OV       0.465800
     51 O4         -15.3550     7.8400   -16.4000 o          1 4OV      -0.533000
     52 H4         -22.6300     9.0600   -19.1710 ha         1 4OV       0.123500
     53 OG         -13.9860     6.8020   -17.8460 os         1 4OV      -0.437900
@<TRIPOS>BOND
     1     1    12 1   
     2     1    13 1   
     3     1    14 1   
     4     2    18 1   
     5     2    51 2   
     6     2    53 1   
     7     3    11 1   
     8     3    29 1   
     9     3    30 1   
    10     3    31 1   
    11     4    10 1   
    12     4    24 1   
    13     4    25 2   
    14     5     6 ar  
    15     5     9 ar  
    16     5    52 1   
    17     6    28 ar  
    18     6    32 1   
    19     7    16 1   
    20     7    17 1   
    21     8    27 ar  
    22     8    28 ar  
    23     8    33 1   
    24     9    27 ar  
    25     9    34 1   
    26    10    26 1   
    27    10    27 1   
    28    10    35 1   
    29    11    14 2   
    30    11    16 1   
    31    14    15 1   
    32    15    17 1   
    33    15    50 1   
    34    16    36 1   
    35    16    37 1   
    36    17    18 1   
    37    17    38 1   
    38    18    24 1   
    39    18    39 1   
    40    19    20 1   
    41    19    40 1   
    42    19    41 1   
    43    19    53 1   
    44    20    21 1   
    45    20    23 1   
    46    20    42 1   
    47    21    22 1   
    48    21    49 1   
    49    23    43 1   
    50    23    44 1   
    51    24    45 1   
    52    26    46 1   
    53    26    47 1   
    54    28    48 1   
@<TRIPOS>SUBSTRUCTURE
     1 4OV         1 TEMP              0 ****  ****    0 ROOT
