@<TRIPOS>MOLECULE
4OX
   29    28     1     0     0
SMALL
No Charge or Current Charge


@<TRIPOS>ATOM
      1 C7          -0.7230    -0.6240     1.7600 c3         1 4OX      -0.081400
      2 C8          -0.0760     0.2570     2.8530 c3         1 4OX      -0.055400
      3 C9          -0.8580     0.2430     4.1890 c3         1 4OX      -0.201400
      4 C10         -0.1540     1.1380     5.2270 c          1 4OX       0.715000
      5 OT1         -0.4570     2.3210     5.2690 o          1 4OX      -0.750500
      6 OT2          0.7080     0.6370     5.9320 o          1 4OX      -0.750500
      7 O1          -0.9270     2.3960    -4.1470 o          1 4OX      -0.749000
      8 C1           0.0240     1.6510    -4.3230 c          1 4OX       0.715000
      9 OH1          0.5790     1.5070    -5.4010 o          1 4OX      -0.749000
     10 C2           0.5010     0.7900    -3.1400 c3         1 4OX      -0.199400
     11 C3          -0.2650    -0.5640    -3.1010 c3         1 4OX      -0.153400
     12 C4           0.2270    -1.4800    -1.9650 c          1 4OX       0.561100
     13 C5          -0.5900    -1.4950    -0.6610 c3         1 4OX      -0.188400
     14 C6           0.0590    -0.6090     0.4290 c3         1 4OX      -0.066400
     15 O4L          1.2230    -2.1810    -2.0980 o          1 4OX      -0.551100
     16 HC71        -0.7920    -1.6560     2.1250 hc         1 4OX       0.020200
     17 HC72        -1.7480    -0.2780     1.5790 hc         1 4OX       0.020200
     18 HC81        -0.0060     1.2900     2.4870 hc         1 4OX       0.037700
     19 HC82         0.9500    -0.0870     3.0320 hc         1 4OX       0.037700
     20 HC91        -0.8610    -0.8020     4.5230 hc         1 4OX       0.012700
     21 HC92        -1.8560     0.6350     3.9570 hc         1 4OX       0.012700
     22 HC21         0.2760     1.2920    -2.1910 hc         1 4OX       0.029200
     23 HC22         1.5610     0.5330    -3.2620 hc         1 4OX       0.029200
     24 HC31        -0.1160    -1.0780    -4.0580 hc         1 4OX       0.058200
     25 HC32        -1.3280    -0.3350    -2.9600 hc         1 4OX       0.058200
     26 HC51        -0.6450    -2.5240    -0.2880 hc         1 4OX       0.049700
     27 HC52        -1.5980    -1.1070    -0.8460 hc         1 4OX       0.049700
     28 HC61         0.1290     0.4230     0.0650 hc         1 4OX       0.043200
     29 HC62         1.0850    -0.9540     0.6100 hc         1 4OX       0.043200
@<TRIPOS>BOND
     1     1     2 1   
     2     1    14 1   
     3     1    16 1   
     4     1    17 1   
     5     2     3 1   
     6     2    18 1   
     7     2    19 1   
     8     3     4 1   
     9     3    20 1   
    10     3    21 1   
    11     4     5 1   
    12     4     6 1   
    13     7     8 1   
    14     8     9 1   
    15     8    10 1   
    16    10    11 1   
    17    10    22 1   
    18    10    23 1   
    19    11    12 1   
    20    11    24 1   
    21    11    25 1   
    22    12    13 1   
    23    12    15 2   
    24    13    14 1   
    25    13    26 1   
    26    13    27 1   
    27    14    28 1   
    28    14    29 1   
@<TRIPOS>SUBSTRUCTURE
     1 4OX         1 TEMP              0 ****  ****    0 ROOT
