@<TRIPOS>MOLECULE
4OX
   29    28     1     0     0
SMALL
bcc


@<TRIPOS>ATOM
      1 C7          -0.6450    -0.0230     2.0050 c3         1 4OX      -0.081400
      2 C8           0.1020    -0.0330     3.3330 c3         1 4OX      -0.055400
      3 C9          -0.8330    -0.0530     4.5310 c3         1 4OX      -0.201400
      4 C10         -0.1620    -0.0900     5.9150 c          1 4OX       0.925600
      5 OT1         -0.9340    -0.0540     6.8980 o          1 4OX      -0.855800
      6 OT2          1.0830    -0.1570     5.9600 o          1 4OX      -0.855800
      7 O1          -1.5910     0.0450    -5.5740 o          1 4OX      -0.854300
      8 C1          -0.3480    -0.0250    -5.6370 c          1 4OX       0.925600
      9 OH1          0.3360    -0.1050    -6.6790 o          1 4OX      -0.854300
     10 C2           0.4460    -0.0130    -4.3170 c3         1 4OX      -0.199400
     11 C3          -0.4050     0.0290    -3.0640 c3         1 4OX      -0.153400
     12 C4           0.3600     0.0080    -1.7650 c          1 4OX       0.561100
     13 C5          -0.4870    -0.0120    -0.5140 c3         1 4OX      -0.188400
     14 C6           0.2830    -0.0020     0.7960 c3         1 4OX      -0.066400
     15 O4L          1.5710     0.0070    -1.7190 o          1 4OX      -0.551100
     16 HC71        -1.2970    -0.9020     1.9460 hc         1 4OX       0.020200
     17 HC72        -1.3120     0.8460     1.9660 hc         1 4OX       0.020200
     18 HC81         0.7550     0.8440     3.3860 hc         1 4OX       0.037700
     19 HC82         0.7660    -0.9020     3.3670 hc         1 4OX       0.037700
     20 HC91        -1.5030    -0.9180     4.4560 hc         1 4OX       0.012700
     21 HC92        -1.4960     0.8190     4.4950 hc         1 4OX       0.012700
     22 HC21         1.1270     0.8440    -4.3390 hc         1 4OX       0.029200
     23 HC22         1.0960    -0.8930    -4.3030 hc         1 4OX       0.029200
     24 HC31        -1.1120    -0.8070    -3.0450 hc         1 4OX       0.058200
     25 HC32        -1.0410     0.9210    -3.0540 hc         1 4OX       0.058200
     26 HC51        -1.1350    -0.8950    -0.5700 hc         1 4OX       0.049700
     27 HC52        -1.1760     0.8390    -0.5630 hc         1 4OX       0.049700
     28 HC61         0.9220     0.8840     0.8460 hc         1 4OX       0.043200
     29 HC62         0.9530    -0.8650     0.8400 hc         1 4OX       0.043200
@<TRIPOS>BOND
     1     1     2 1   
     2     1    14 1   
     3     1    16 1   
     4     1    17 1   
     5     2     3 1   
     6     2    18 1   
     7     2    19 1   
     8     3     4 1   
     9     3    20 1   
    10     3    21 1   
    11     4     5 1   
    12     4     6 1   
    13     7     8 1   
    14     8     9 1   
    15     8    10 1   
    16    10    11 1   
    17    10    22 1   
    18    10    23 1   
    19    11    12 1   
    20    11    24 1   
    21    11    25 1   
    22    12    13 1   
    23    12    15 2   
    24    13    14 1   
    25    13    26 1   
    26    13    27 1   
    27    14    28 1   
    28    14    29 1   
@<TRIPOS>SUBSTRUCTURE
     1 4OX         1 TEMP              0 ****  ****    0 ROOT
