@<TRIPOS>MOLECULE
4OY
   45    48     1     0     0
SMALL
bcc


@<TRIPOS>ATOM
      1 C1          11.0550     7.5700    -8.4940 ca         1 4OY      -0.128000
      2 C5          12.1500     5.8240    -9.7190 ca         1 4OY      -0.148000
      3 C4          11.3820     4.8910    -9.0420 ca         1 4OY      -0.136000
      4 C3          10.4420     5.2790    -8.0870 ca         1 4OY      -0.072300
      5 C2          10.2740     6.6370    -7.8100 ca         1 4OY      -0.040300
      6 C6          11.9860     7.1770    -9.4410 ca         1 4OY      -0.138000
      7 C7           9.2520     7.1170    -6.8110 c6         1 4OY      -0.027100
      8 C8           8.7830     6.0210    -5.8520 c6         1 4OY       0.005600
      9 O3           4.2220     8.4700    -2.0610 o          1 4OY      -0.641100
     10 C16          5.2930     8.8300    -1.5880 c          1 4OY       0.665700
     11 C17          5.3590     9.6950    -0.3730 ca         1 4OY      -0.125600
     12 C18          4.1520    10.0730     0.2150 ca         1 4OY      -0.086000
     13 C19          4.1370    10.8800     1.3410 ca         1 4OY      -0.152500
     14 C20          5.3300    11.3210     1.8970 ca         1 4OY      -0.124000
     15 C21          6.5370    10.9490     1.3200 ca         1 4OY      -0.152500
     16 C22          6.5530    10.1420     0.1920 ca         1 4OY      -0.086000
     17 C13          6.6080     7.6970    -3.2660 cc         1 4OY       0.103500
     18 C14          7.8310     7.3500    -3.8020 cd         1 4OY      -0.229600
     19 C15          9.1240     7.7930    -3.1570 c          1 4OY       0.951200
     20 O2           9.0160     8.5140    -2.1230 o          1 4OY      -0.817800
     21 C11          7.6700     6.5350    -4.9790 cd         1 4OY      -0.027300
     22 C12          6.3580     6.3100    -5.2640 cc         1 4OY      -0.198100
     23 S1           5.2790     7.0570    -4.1510 ss         1 4OY      -0.111800
     24 C9           8.4080     4.7890    -6.6700 c6         1 4OY      -0.070400
     25 C10          9.6450     4.2290    -7.3560 c6         1 4OY      -0.028100
     26 H1          10.9270     8.6240    -8.2740 ha         1 4OY       0.129000
     27 H2          12.8720     5.5010   -10.4580 ha         1 4OY       0.114000
     28 H3          11.5080     3.8360    -9.2580 ha         1 4OY       0.114000
     29 H4          12.5800     7.9180    -9.9600 ha         1 4OY       0.117000
     30 H5           9.6540     7.9570    -6.2440 hc         1 4OY       0.062700
     31 H6           8.3810     7.5010    -7.3540 hc         1 4OY       0.062700
     32 H7           9.6230     5.7570    -5.2080 hc         1 4OY       0.100700
     33 H8           3.2190     9.7330    -0.2130 ha         1 4OY       0.158500
     34 H9           3.1920    11.1640     1.7850 ha         1 4OY       0.124500
     35 H10          5.3210    11.9530     2.7750 ha         1 4OY       0.117000
     36 H11          7.4720    11.2880     1.7460 ha         1 4OY       0.124500
     37 H12          7.5150     9.8790    -0.2280 ha         1 4OY       0.158500
     38 H13          7.4230     8.7200    -1.8020 hn         1 4OY       0.408500
     39 H15          5.9490     5.7400    -6.0840 h4         1 4OY       0.143000
     40 H16          7.6550     5.0450    -7.4240 hc         1 4OY       0.036200
     41 H17          7.9640     4.0210    -6.0320 hc         1 4OY       0.036200
     42 H18          9.3650     3.4330    -8.0510 hc         1 4OY       0.039200
     43 H19         10.2880     3.7560    -6.6070 hc         1 4OY       0.039200
     44 N1           6.4680     8.4690    -2.1390 ns         1 4OY      -0.452100
     45 O1          10.1980     7.4340    -3.6580 o          1 4OY      -0.817800
@<TRIPOS>BOND
     1     1     5 ar  
     2     1     6 ar  
     3     1    26 1   
     4     2     3 ar  
     5     2     6 ar  
     6     2    27 1   
     7     3     4 ar  
     8     3    28 1   
     9     4     5 ar  
    10     4    25 1   
    11     5     7 1   
    12     6    29 1   
    13     7     8 1   
    14     7    30 1   
    15     7    31 1   
    16     8    21 1   
    17     8    24 1   
    18     8    32 1   
    19     9    10 2   
    20    10    11 1   
    21    10    44 1   
    22    11    12 ar  
    23    11    16 ar  
    24    12    13 ar  
    25    12    33 1   
    26    13    14 ar  
    27    13    34 1   
    28    14    15 ar  
    29    14    35 1   
    30    15    16 ar  
    31    15    36 1   
    32    16    37 1   
    33    17    18 2   
    34    17    23 1   
    35    17    44 1   
    36    18    19 1   
    37    18    21 1   
    38    19    20 1   
    39    19    45 1   
    40    21    22 2   
    41    22    23 1   
    42    22    39 1   
    43    24    25 1   
    44    24    40 1   
    45    24    41 1   
    46    25    42 1   
    47    25    43 1   
    48    38    44 1   
@<TRIPOS>SUBSTRUCTURE
     1 4OY         1 TEMP              0 ****  ****    0 ROOT
