@<TRIPOS>MOLECULE
4OY
   45    48     1     0     0
SMALL
No Charge or Current Charge


@<TRIPOS>ATOM
      1 C1          11.0860     7.5760    -8.5830 ca         1 4OY      -0.110000
      2 C5          12.2780     5.7860    -9.7170 ca         1 4OY      -0.130000
      3 C4          11.5210     4.8370    -9.0110 ca         1 4OY      -0.118000
      4 C3          10.5390     5.2490    -8.0890 ca         1 4OY      -0.072300
      5 C2          10.3240     6.6310    -7.8670 ca         1 4OY      -0.040300
      6 C6          12.0600     7.1560    -9.5040 ca         1 4OY      -0.120000
      7 C7           9.2600     7.1280    -6.8790 c6         1 4OY      -0.027100
      8 C8           8.7830     6.0460    -5.8760 c6         1 4OY       0.005600
      9 O3           3.9850     8.5350    -1.9660 o          1 4OY      -0.641100
     10 C16          5.0960     8.8550    -1.5590 c          1 4OY       0.598700
     11 C17          5.2620     9.7120    -0.3150 ca         1 4OY      -0.125600
     12 C18          4.1080    10.1440     0.3830 ca         1 4OY      -0.068000
     13 C19          4.2170    10.9370     1.5380 ca         1 4OY      -0.134500
     14 C20          5.4790    11.3140     2.0170 ca         1 4OY      -0.106000
     15 C21          6.6340    10.8960     1.3400 ca         1 4OY      -0.134500
     16 C22          6.5320    10.1020     0.1840 ca         1 4OY      -0.068000
     17 C13          6.4390     7.6860    -3.3430 cc         1 4OY      -0.041400
     18 C14          7.7010     7.3850    -3.8530 cd         1 4OY      -0.229600
     19 C15          8.9750     7.8870    -3.1970 c          1 4OY       0.740600
     20 O2           8.9000     8.5700    -2.1830 o          1 4OY      -0.712500
     21 C11          7.6020     6.5650    -5.0480 cd         1 4OY      -0.027300
     22 C12          6.3040     6.2850    -5.4090 cc         1 4OY      -0.325000
     23 S1           5.1440     6.9840    -4.3100 ss         1 4OY       0.178000
     24 C9           8.4650     4.7420    -6.6560 c6         1 4OY      -0.070400
     25 C10          9.7400     4.1840    -7.3280 c6         1 4OY      -0.028100
     26 H1          10.9210     8.6390    -8.4250 ha         1 4OY       0.111000
     27 H2          13.0330     5.4590   -10.4280 ha         1 4OY       0.096000
     28 H3          11.6980     3.7770    -9.1800 ha         1 4OY       0.096000
     29 H4          12.6440     7.8920   -10.0510 ha         1 4OY       0.099000
     30 H5           9.6430     7.9980    -6.3290 hc         1 4OY       0.062700
     31 H6           8.3970     7.4930    -7.4520 hc         1 4OY       0.062700
     32 H7           9.6140     5.7920    -5.2080 hc         1 4OY       0.100700
     33 H8           3.1170     9.8640     0.0300 ha         1 4OY       0.140500
     34 H9           3.3190    11.2600     2.0610 ha         1 4OY       0.106500
     35 H10          5.5630    11.9290     2.9110 ha         1 4OY       0.099000
     36 H11          7.6140    11.1880     1.7110 ha         1 4OY       0.106500
     37 H12          7.4540     9.8030    -0.3060 ha         1 4OY       0.140500
     38 H13          7.1160     8.7890    -1.7630 hn         1 4OY       0.408500
     39 H15          5.9330     5.7140    -6.2490 h4         1 4OY       0.125000
     40 H16          7.7110     4.9360    -7.4310 hc         1 4OY       0.036200
     41 H17          8.0430     3.9850    -5.9810 hc         1 4OY       0.036200
     42 H18          9.4630     3.3660    -8.0070 hc         1 4OY       0.039200
     43 H19         10.3870     3.7380    -6.5610 hc         1 4OY       0.039200
     44 N1           6.2580     8.4600    -2.1990 ns         1 4OY      -0.385100
     45 O1          10.0580     7.6090    -3.6830 o          1 4OY      -0.712500
@<TRIPOS>BOND
     1     1     5 ar  
     2     1     6 ar  
     3     1    26 1   
     4     2     3 ar  
     5     2     6 ar  
     6     2    27 1   
     7     3     4 ar  
     8     3    28 1   
     9     4     5 ar  
    10     4    25 1   
    11     5     7 1   
    12     6    29 1   
    13     7     8 1   
    14     7    30 1   
    15     7    31 1   
    16     8    21 1   
    17     8    24 1   
    18     8    32 1   
    19     9    10 2   
    20    10    11 1   
    21    10    44 1   
    22    11    12 ar  
    23    11    16 ar  
    24    12    13 ar  
    25    12    33 1   
    26    13    14 ar  
    27    13    34 1   
    28    14    15 ar  
    29    14    35 1   
    30    15    16 ar  
    31    15    36 1   
    32    16    37 1   
    33    17    18 2   
    34    17    23 1   
    35    17    44 1   
    36    18    19 1   
    37    18    21 1   
    38    19    20 1   
    39    19    45 1   
    40    21    22 2   
    41    22    23 1   
    42    22    39 1   
    43    24    25 1   
    44    24    40 1   
    45    24    41 1   
    46    25    42 1   
    47    25    43 1   
    48    38    44 1   
@<TRIPOS>SUBSTRUCTURE
     1 4OY         1 TEMP              0 ****  ****    0 ROOT
