@<TRIPOS>MOLECULE
4OZ
   33    33     1     0     0
SMALL
No Charge or Current Charge


@<TRIPOS>ATOM
      1 C15         29.7230    84.5190    68.5010 c3         1 4OZ       0.151900
      2 C25         32.2290    81.2310    63.2940 c          1 4OZ       0.600900
      3 O26         32.9390    80.3690    62.7970 o          1 4OZ      -0.435000
      4 CB          31.5800    82.7460    65.0630 c3         1 4OZ       0.175600
      5 CA          30.4260    81.9880    65.7860 c3         1 4OZ       0.027700
      6 N           29.5510    81.1660    64.8980 ns         1 4OZ      -0.512900
      7 C           29.5840    82.9440    66.6770 c          1 4OZ       0.593100
      8 OXT         30.3650    83.6020    67.5940 os         1 4OZ      -0.432100
      9 O           28.3670    83.0790    66.5990 o          1 4OZ      -0.502000
     10 C34         28.8300    81.6260    63.8160 c          1 4OZ       0.613700
     11 C35         27.9430    80.6190    63.1210 ca         1 4OZ      -0.206600
     12 C36         27.6780    80.8120    61.7440 ca         1 4OZ      -0.069000
     13 C37         26.9130    79.8860    61.0150 ca         1 4OZ      -0.112000
     14 C38         26.3930    78.7480    61.6500 ca         1 4OZ      -0.103000
     15 C39         26.6230    78.5520    63.0190 ca         1 4OZ       0.113100
     16 C40         27.3790    79.4850    63.7640 ca         1 4OZ       0.087100
     17 O48         28.9090    82.7860    63.4390 o          1 4OZ      -0.581100
     18 O50         27.4950    79.2820    65.1170 oh         1 4OZ      -0.578100
     19 O51         26.0970    77.4610    63.6490 oh         1 4OZ      -0.532100
     20 H1          30.4620    84.9730    69.1730 h1         1 4OZ       0.056700
     21 H2          29.2210    85.3270    67.9530 h1         1 4OZ       0.056700
     22 H3          28.9760    84.0020    69.1180 h1         1 4OZ       0.056700
     23 H4          31.3200    81.6270    62.8070 h5         1 4OZ       0.010200
     24 HB2         32.1050    83.3660    65.8010 h1         1 4OZ       0.080700
     25 HB3         31.1920    83.4290    64.2960 h1         1 4OZ       0.080700
     26 HA          30.9050    81.3010    66.4950 h1         1 4OZ       0.093700
     27 H           29.4450    80.1760    65.1030 hn         1 4OZ       0.340500
     28 H9          28.0870    81.6770    61.2240 ha         1 4OZ       0.127000
     29 H10         26.7310    80.0470    59.9550 ha         1 4OZ       0.124000
     30 H11         25.8050    78.0280    61.0870 ha         1 4OZ       0.134000
     31 H12         27.3040    80.1290    65.5830 ho         1 4OZ       0.510000
     32 H13         26.3840    77.5290    64.5880 ho         1 4OZ       0.485000
     33 OG          32.5150    81.7930    64.5100 os         1 4OZ      -0.455100
@<TRIPOS>BOND
     1     1     8 1   
     2     1    20 1   
     3     1    21 1   
     4     1    22 1   
     5     2     3 2   
     6     2    23 1   
     7     2    33 1   
     8     4     5 1   
     9     4    24 1   
    10     4    25 1   
    11     4    33 1   
    12     5     6 1   
    13     5     7 1   
    14     5    26 1   
    15     6    10 1   
    16     6    27 1   
    17     7     8 1   
    18     7     9 2   
    19    10    11 1   
    20    10    17 2   
    21    11    12 ar  
    22    11    16 ar  
    23    12    13 ar  
    24    12    28 1   
    25    13    14 ar  
    26    13    29 1   
    27    14    15 ar  
    28    14    30 1   
    29    15    16 ar  
    30    15    19 1   
    31    16    18 1   
    32    18    31 1   
    33    19    32 1   
@<TRIPOS>SUBSTRUCTURE
     1 4OZ         1 TEMP              0 ****  ****    0 ROOT
