@<TRIPOS>MOLECULE
4OZ
   33    33     1     0     0
SMALL
abcg2


@<TRIPOS>ATOM
      1 C15         29.2710    84.1930    68.1290 c3         1 4OZ       0.151900
      2 C25         32.4150    81.8330    63.0550 c          1 4OZ       0.600900
      3 O26         33.0930    81.1360    62.3570 o          1 4OZ      -0.435000
      4 CB          31.6960    82.6630    65.1410 c3         1 4OZ       0.175600
      5 CA          30.6060    81.7400    65.6940 c3         1 4OZ       0.027700
      6 N           29.9160    80.9860    64.6840 ns         1 4OZ      -0.512900
      7 C           29.5840    82.4490    66.5790 c          1 4OZ       0.593100
      8 OXT         30.1070    83.4640    67.2220 os         1 4OZ      -0.432100
      9 O           28.4420    82.0770    66.7000 o          1 4OZ      -0.502000
     10 C34         29.0040    81.5600    63.8650 c          1 4OZ       0.613700
     11 C35         28.0700    80.6070    63.2030 ca         1 4OZ      -0.206600
     12 C36         27.9860    80.5820    61.8110 ca         1 4OZ      -0.069000
     13 C37         27.1110    79.7120    61.1910 ca         1 4OZ      -0.112000
     14 C38         26.2910    78.8860    61.9530 ca         1 4OZ      -0.103000
     15 C39         26.3430    78.9270    63.3360 ca         1 4OZ       0.113100
     16 C40         27.2430    79.7950    63.9750 ca         1 4OZ       0.087100
     17 O48         28.9410    82.7650    63.6980 o          1 4OZ      -0.581100
     18 O50         27.2140    79.7640    65.3240 oh         1 4OZ      -0.578100
     19 O51         25.5220    78.1330    64.0500 oh         1 4OZ      -0.532100
     20 H1          29.8970    84.9770    68.5420 h1         1 4OZ       0.056700
     21 H2          28.4240    84.6350    67.6070 h1         1 4OZ       0.056700
     22 H3          28.9120    83.5500    68.9310 h1         1 4OZ       0.056700
     23 H4          31.6180    82.4920    62.6780 h5         1 4OZ       0.010200
     24 HB2         32.2750    83.0910    65.9550 h1         1 4OZ       0.080700
     25 HB3         31.2740    83.4790    64.5520 h1         1 4OZ       0.080700
     26 HA          31.0980    81.0070    66.3430 h1         1 4OZ       0.093700
     27 H           29.9530    79.9800    64.7450 hn         1 4OZ       0.340500
     28 H9          28.6240    81.2320    61.2260 ha         1 4OZ       0.127000
     29 H10         27.0550    79.6720    60.1110 ha         1 4OZ       0.124000
     30 H11         25.5950    78.2100    61.4740 ha         1 4OZ       0.134000
     31 H12         27.6600    80.5200    65.7450 ho         1 4OZ       0.510000
     32 H13         25.6330    78.3020    64.9950 ho         1 4OZ       0.485000
     33 OG          32.6010    81.8860    64.3680 os         1 4OZ      -0.455100
@<TRIPOS>BOND
     1     1     8 1   
     2     1    20 1   
     3     1    21 1   
     4     1    22 1   
     5     2     3 2   
     6     2    23 1   
     7     2    33 1   
     8     4     5 1   
     9     4    24 1   
    10     4    25 1   
    11     4    33 1   
    12     5     6 1   
    13     5     7 1   
    14     5    26 1   
    15     6    10 1   
    16     6    27 1   
    17     7     8 1   
    18     7     9 2   
    19    10    11 1   
    20    10    17 2   
    21    11    12 ar  
    22    11    16 ar  
    23    12    13 ar  
    24    12    28 1   
    25    13    14 ar  
    26    13    29 1   
    27    14    15 ar  
    28    14    30 1   
    29    15    16 ar  
    30    15    19 1   
    31    16    18 1   
    32    18    31 1   
    33    19    32 1   
@<TRIPOS>SUBSTRUCTURE
     1 4OZ         1 TEMP              0 ****  ****    0 ROOT
