@<TRIPOS>MOLECULE
4P0
   27    28     1     0     0
SMALL
No Charge or Current Charge


@<TRIPOS>ATOM
      1 C10        -26.8580    28.7530    84.5730 c          1 4P0       0.564300
      2 C11        -25.4480    28.1790    84.6770 c3         1 4P0      -0.193100
      3 O12        -27.6060    28.4510    83.6530 o          1 4P0      -0.527100
      4 C1         -26.9560    32.4300    87.0850 c5         1 4P0       0.159500
      5 C2         -28.1570    32.9670    86.2610 c5         1 4P0      -0.074400
      6 C3         -28.3410    31.9010    85.1380 c5         1 4P0      -0.069400
      7 C4         -26.9720    31.1410    85.1050 c5         1 4P0       0.203700
      8 C6         -27.2590    29.7320    85.6250 ce         1 4P0      -0.231400
      9 C7         -27.2830    31.4330    88.2360 c3         1 4P0      -0.099400
     10 C8         -28.2380    30.2530    87.9310 c3         1 4P0      -0.050200
     11 C9         -27.7730    29.3410    86.8150 c2         1 4P0      -0.148200
     12 N5         -26.0840    31.8500    86.0460 n7         1 4P0      -0.845400
     13 H111       -25.2120    27.4820    83.8650 hc         1 4P0       0.060700
     14 H112       -24.7310    29.0060    84.7240 hc         1 4P0       0.060700
     15 H113       -25.3270    27.7150    85.6620 hc         1 4P0       0.060700
     16 HC1        -26.4340    33.2730    87.5640 h1         1 4P0       0.066700
     17 HC23       -29.0590    33.1040    86.8680 hc         1 4P0       0.046700
     18 HC33       -28.5440    32.3850    84.1760 hc         1 4P0       0.048700
     19 HC32       -29.1950    31.2430    85.3300 hc         1 4P0       0.048700
     20 HC4        -26.5440    31.1300    84.0890 h1         1 4P0       0.095700
     21 HC73       -26.3460    31.0240    88.6320 hc         1 4P0       0.044700
     22 HC72       -27.7250    32.0010    89.0630 hc         1 4P0       0.044700
     23 HC82       -29.2340    30.6460    87.6960 hc         1 4P0       0.051700
     24 HC83       -28.3620    29.6670    88.8500 hc         1 4P0       0.051700
     25 HC9        -27.9080    28.2780    87.0280 ha         1 4P0       0.169000
     26 HN52       -25.4230    31.1890    86.4680 hn         1 4P0       0.413000
     27 HC22       -27.9140    33.9430    85.8270 hc         1 4P0       0.046700
@<TRIPOS>BOND
     1     1     2 1   
     2     1     3 2   
     3     1     8 1   
     4     2    13 1   
     5     2    14 1   
     6     2    15 1   
     7     4     5 1   
     8     4     9 1   
     9     4    12 1   
    10     4    16 1   
    11     5     6 1   
    12     5    17 1   
    13     5    27 1   
    14     6     7 1   
    15     6    18 1   
    16     6    19 1   
    17     7     8 1   
    18     7    12 1   
    19     7    20 1   
    20     8    11 2   
    21     9    10 1   
    22     9    21 1   
    23     9    22 1   
    24    10    11 1   
    25    10    23 1   
    26    10    24 1   
    27    11    25 1   
    28    12    26 1   
@<TRIPOS>SUBSTRUCTURE
     1 4P0         1 TEMP              0 ****  ****    0 ROOT
