@<TRIPOS>MOLECULE
4P0
   27    28     1     0     0
SMALL
abcg2


@<TRIPOS>ATOM
      1 C10        -26.3190    28.9650    84.5100 c          1 4P0       0.564300
      2 C11        -26.0270    27.5310    84.8950 c3         1 4P0      -0.193100
      3 O12        -26.1340    29.3240    83.3520 o          1 4P0      -0.527100
      4 C1         -27.1730    32.6660    87.0680 c5         1 4P0       0.159500
      5 C2         -28.5290    32.8170    86.3610 c5         1 4P0      -0.074400
      6 C3         -28.4570    31.8670    85.1430 c5         1 4P0      -0.069400
      7 C4         -26.9870    31.3690    85.0910 c5         1 4P0       0.203700
      8 C6         -26.8300    29.9220    85.5280 ce         1 4P0      -0.231400
      9 C7         -27.1740    31.6250    88.1950 c3         1 4P0      -0.099400
     10 C8         -27.7820    30.2550    87.8680 c3         1 4P0      -0.050200
     11 C9         -27.1630    29.4720    86.7490 c2         1 4P0      -0.148200
     12 N5         -26.2800    32.3390    85.9470 n7         1 4P0      -0.845400
     13 H111       -25.6120    27.0160    84.0320 hc         1 4P0       0.060700
     14 H112       -25.3200    27.4810    85.7250 hc         1 4P0       0.060700
     15 H113       -26.9390    27.0210    85.2110 hc         1 4P0       0.060700
     16 HC1        -26.8560    33.6160    87.5050 h1         1 4P0       0.066700
     17 HC23       -29.3600    32.5830    87.0250 hc         1 4P0       0.046700
     18 HC33       -28.7060    32.3960    84.2240 hc         1 4P0       0.048700
     19 HC32       -29.1480    31.0300    85.2340 hc         1 4P0       0.048700
     20 HC4        -26.5980    31.4410    84.0790 h1         1 4P0       0.095700
     21 HC73       -26.1410    31.4860    88.5320 hc         1 4P0       0.044700
     22 HC72       -27.7270    32.0380    89.0440 hc         1 4P0       0.044700
     23 HC82       -28.8470    30.3810    87.6360 hc         1 4P0       0.051700
     24 HC83       -27.7520    29.6440    88.7720 hc         1 4P0       0.051700
     25 HC9        -27.0250    28.4190    86.9580 ha         1 4P0       0.169000
     26 HN52       -25.3940    31.9660    86.2720 hn         1 4P0       0.413000
     27 HC22       -28.6520    33.8480    86.0280 hc         1 4P0       0.046700
@<TRIPOS>BOND
     1     1     2 1   
     2     1     3 2   
     3     1     8 1   
     4     2    13 1   
     5     2    14 1   
     6     2    15 1   
     7     4     5 1   
     8     4     9 1   
     9     4    12 1   
    10     4    16 1   
    11     5     6 1   
    12     5    17 1   
    13     5    27 1   
    14     6     7 1   
    15     6    18 1   
    16     6    19 1   
    17     7     8 1   
    18     7    12 1   
    19     7    20 1   
    20     8    11 2   
    21     9    10 1   
    22     9    21 1   
    23     9    22 1   
    24    10    11 1   
    25    10    23 1   
    26    10    24 1   
    27    11    25 1   
    28    12    26 1   
@<TRIPOS>SUBSTRUCTURE
     1 4P0         1 TEMP              0 ****  ****    0 ROOT
