@<TRIPOS>MOLECULE
4P1
   50    53     1     0     0
SMALL
bcc


@<TRIPOS>ATOM
      1 C1          -3.1240     0.3570     0.5980 c          1 4P1       0.698700
      2 C2          -4.5860     0.5570     0.3110 ca         1 4P1      -0.188600
      3 C3          -5.0530     1.7980    -0.0870 ca         1 4P1       0.172900
      4 C7          -5.5300    -0.4290     0.5620 ca         1 4P1       0.077400
      5 C10         -0.9990    -1.8670    -2.0750 c6         1 4P1      -0.026100
      6 C11         -0.9220    -0.0350    -0.3060 ca         1 4P1       0.067600
      7 C12         -0.2760    -1.0220    -1.0570 ca         1 4P1      -0.106300
      8 C13          1.0960    -1.1890    -0.8950 ca         1 4P1      -0.091000
      9 C14         -0.1820     0.7870     0.5420 ca         1 4P1      -0.120000
     10 C15          1.1800     0.6030     0.6820 ca         1 4P1      -0.097000
     11 C16          1.8370    -0.4020    -0.0250 cp         1 4P1      -0.054000
     12 C19          5.2680    -1.8900     0.6400 ca         1 4P1      -0.134000
     13 C20          6.0810    -0.8050     0.3610 ca         1 4P1      -0.099000
     14 C21          5.5220     0.4070    -0.0340 ca         1 4P1      -0.150600
     15 C22          6.3410     1.6130    -0.3720 c          1 4P1       0.677700
     16 C24          4.1410     0.4980    -0.1630 ca         1 4P1      -0.063000
     17 C4          -6.3940     2.0770    -0.2500 ca         1 4P1      -0.173000
     18 C5          -7.3080     1.0650     0.0030 ca         1 4P1      -0.082000
     19 C6          -6.8860    -0.1940     0.4060 ca         1 4P1      -0.143000
     20 O2           5.9140     2.4710    -1.1340 o          1 4P1      -0.598100
     21 N2           7.5470     1.6950     0.2040 ns         1 4P1      -0.570900
     22 C23          8.4400     2.8020    -0.0460 c3         1 4P1       0.094300
     23 C18          3.8920    -1.7690     0.5220 ca         1 4P1       0.053400
     24 CL2          2.9180    -3.1390     0.9310 cl         1 4P1      -0.096400
     25 C17          3.2980    -0.5740     0.1140 cp         1 4P1      -0.029000
     26 C9          -2.5080    -1.6670    -2.0650 c6         1 4P1      -0.100400
     27 C8          -2.8320    -0.2100    -1.7900 c6         1 4P1       0.102000
     28 N1          -2.3170     0.1510    -0.4710 n          1 4P1      -0.371000
     29 O1          -2.7440     0.4100     1.7510 o          1 4P1      -0.550100
     30 F           -4.1460     2.7530    -0.3290 f          1 4P1      -0.128900
     31 CL1         -4.9890    -1.9970     1.0510 cl         1 4P1      -0.082400
     32 H1          -0.6060    -1.6070    -3.0620 hc         1 4P1       0.053200
     33 H2          -0.7510    -2.9190    -1.9210 hc         1 4P1       0.053200
     34 H3           1.5920    -1.9510    -1.4850 ha         1 4P1       0.136000
     35 H4          -0.6590     1.5880     1.0870 ha         1 4P1       0.155000
     36 H5           1.7360     1.2470     1.3530 ha         1 4P1       0.139000
     37 H6           5.7060    -2.8290     0.9500 ha         1 4P1       0.149000
     38 H7           7.1530    -0.9340     0.4400 ha         1 4P1       0.133000
     39 H8           3.7000     1.4290    -0.4970 ha         1 4P1       0.162000
     40 H9          -6.7150     3.0600    -0.5670 ha         1 4P1       0.159000
     41 H10         -8.3650     1.2580    -0.1180 ha         1 4P1       0.143000
     42 H11         -7.6030    -0.9800     0.5980 ha         1 4P1       0.156000
     43 H12          7.8140     1.0280     0.9070 hn         1 4P1       0.317500
     44 H13          8.6590     2.9030    -1.1080 h1         1 4P1       0.041367
     45 H14          8.0280     3.7470     0.3110 h1         1 4P1       0.041367
     46 H15          9.3720     2.6130     0.4790 h1         1 4P1       0.041367
     47 H16         -2.9350    -1.9690    -3.0220 hc         1 4P1       0.055200
     48 H17         -2.9780    -2.2840    -1.2960 hc         1 4P1       0.055200
     49 H18         -2.3690     0.4400    -2.5350 h1         1 4P1       0.059700
     50 H19         -3.9040    -0.0350    -1.8300 h1         1 4P1       0.059700
@<TRIPOS>BOND
     1     1     2 1   
     2     1    28 1   
     3     1    29 2   
     4     2     3 ar  
     5     2     4 ar  
     6     3    17 ar  
     7     3    30 1   
     8     4    19 ar  
     9     4    31 1   
    10     5     7 1   
    11     5    26 1   
    12     5    32 1   
    13     5    33 1   
    14     6     7 ar  
    15     6     9 ar  
    16     6    28 1   
    17     7     8 ar  
    18     8    11 ar  
    19     8    34 1   
    20     9    10 ar  
    21     9    35 1   
    22    10    11 ar  
    23    10    36 1   
    24    11    25 1   
    25    12    13 ar  
    26    12    23 ar  
    27    12    37 1   
    28    13    14 ar  
    29    13    38 1   
    30    14    15 1   
    31    14    16 ar  
    32    15    20 2   
    33    15    21 1   
    34    16    25 ar  
    35    16    39 1   
    36    17    18 ar  
    37    17    40 1   
    38    18    19 ar  
    39    18    41 1   
    40    19    42 1   
    41    21    22 1   
    42    21    43 1   
    43    22    44 1   
    44    22    45 1   
    45    22    46 1   
    46    23    24 1   
    47    23    25 ar  
    48    26    27 1   
    49    26    47 1   
    50    26    48 1   
    51    27    28 1   
    52    27    49 1   
    53    27    50 1   
@<TRIPOS>SUBSTRUCTURE
     1 4P1         1 TEMP              0 ****  ****    0 ROOT
