@<TRIPOS>MOLECULE
4P1
   50    53     1     0     0
SMALL
No Charge or Current Charge


@<TRIPOS>ATOM
      1 C1          -3.2700     0.0590     0.6460 c          1 4P1       0.631700
      2 C2          -4.6720     0.5420     0.4040 ca         1 4P1      -0.188600
      3 C3          -4.9050     1.6720    -0.4070 ca         1 4P1       0.208000
      4 C7          -5.7750    -0.1050     1.0020 ca         1 4P1       0.169000
      5 C10         -0.9410    -1.9600    -2.2540 c6         1 4P1      -0.026100
      6 C11         -0.9810    -0.1550    -0.4170 ca         1 4P1      -0.025000
      7 C12         -0.2520    -1.0940    -1.1920 ca         1 4P1      -0.106300
      8 C13          1.1430    -1.2030    -1.0390 ca         1 4P1      -0.073000
      9 C14         -0.2860     0.6020     0.5510 ca         1 4P1      -0.102000
     10 C15          1.1050     0.4820     0.6990 ca         1 4P1      -0.079000
     11 C16          1.8450    -0.4270    -0.0890 cp         1 4P1      -0.054000
     12 C19          5.3760    -1.8250     0.4420 ca         1 4P1      -0.116000
     13 C20          6.1490    -0.6560     0.3440 ca         1 4P1      -0.081000
     14 C21          5.5290     0.5940     0.1140 ca         1 4P1      -0.150600
     15 C22          6.3200     1.8830     0.0050 c          1 4P1       0.610700
     16 C24          4.1230     0.6330    -0.0190 ca         1 4P1      -0.045000
     17 C4          -6.2090     2.1410    -0.6280 ca         1 4P1      -0.155000
     18 C5          -7.3020     1.4870    -0.0380 ca         1 4P1      -0.064000
     19 C6          -7.0800     0.3650     0.7760 ca         1 4P1      -0.125000
     20 O2           5.7820     2.9640    -0.1930 o          1 4P1      -0.598100
     21 N2           7.6880     1.7860     0.1400 ns         1 4P1      -0.503900
     22 C23          8.6090     2.9230     0.0640 c3         1 4P1       0.094300
     23 C18          3.9800    -1.7730     0.3070 ca         1 4P1       0.145000
     24 Cl2          3.0830    -3.2810     0.4960 cl         1 4P1      -0.188000
     25 C17          3.3270    -0.5360     0.0660 cp         1 4P1      -0.029000
     26 C9          -2.4750    -2.0080    -2.0960 c6         1 4P1      -0.100400
     27 C8          -3.0230    -0.6110    -1.7580 c6         1 4P1       0.102000
     28 N1          -2.4290    -0.1290    -0.4850 n          1 4P1      -0.211400
     29 O1          -2.8530    -0.0660     1.7930 o          1 4P1      -0.550100
     30 F           -3.8720     2.3470    -0.9590 f          1 4P1      -0.164000
     31 Cl1         -5.5740    -1.5520     1.9900 cl         1 4P1      -0.174000
     32 H1          -0.6940    -1.5590    -3.2460 hc         1 4P1       0.053200
     33 H2          -0.5390    -2.9830    -2.2290 hc         1 4P1       0.053200
     34 H3           1.6940    -1.8970    -1.6690 ha         1 4P1       0.118000
     35 H4          -0.8160     1.3110     1.1820 ha         1 4P1       0.137000
     36 H5           1.6160     1.0910     1.4410 ha         1 4P1       0.121000
     37 H6           5.8620    -2.7780     0.6310 ha         1 4P1       0.131000
     38 H7           7.2270    -0.7440     0.4560 ha         1 4P1       0.115000
     39 H8           3.6270     1.5840    -0.2040 ha         1 4P1       0.144000
     40 H9          -6.3690     3.0160    -1.2530 ha         1 4P1       0.141000
     41 H10         -8.3140     1.8480    -0.2090 ha         1 4P1       0.125000
     42 H11         -7.9250    -0.1480     1.2310 ha         1 4P1       0.138000
     43 H12          8.0710     0.8640     0.3020 hn         1 4P1       0.317500
     44 H13          8.5220     3.4040    -0.9190 h1         1 4P1       0.041367
     45 H14          8.3650     3.6500     0.8490 h1         1 4P1       0.041367
     46 H15          9.6390     2.5710     0.2040 h1         1 4P1       0.041367
     47 H16         -2.9380    -2.3890    -3.0160 hc         1 4P1       0.055200
     48 H17         -2.7430    -2.7080    -1.2930 hc         1 4P1       0.055200
     49 H18         -2.7730     0.0960    -2.5620 h1         1 4P1       0.059700
     50 H19         -4.1180    -0.6700    -1.6970 h1         1 4P1       0.059700
@<TRIPOS>BOND
     1     1     2 1   
     2     1    28 1   
     3     1    29 2   
     4     2     3 ar  
     5     2     4 ar  
     6     3    17 ar  
     7     3    30 1   
     8     4    19 ar  
     9     4    31 1   
    10     5     7 1   
    11     5    26 1   
    12     5    32 1   
    13     5    33 1   
    14     6     7 ar  
    15     6     9 ar  
    16     6    28 1   
    17     7     8 ar  
    18     8    11 ar  
    19     8    34 1   
    20     9    10 ar  
    21     9    35 1   
    22    10    11 ar  
    23    10    36 1   
    24    11    25 1   
    25    12    13 ar  
    26    12    23 ar  
    27    12    37 1   
    28    13    14 ar  
    29    13    38 1   
    30    14    15 1   
    31    14    16 ar  
    32    15    20 2   
    33    15    21 1   
    34    16    25 ar  
    35    16    39 1   
    36    17    18 ar  
    37    17    40 1   
    38    18    19 ar  
    39    18    41 1   
    40    19    42 1   
    41    21    22 1   
    42    21    43 1   
    43    22    44 1   
    44    22    45 1   
    45    22    46 1   
    46    23    24 1   
    47    23    25 ar  
    48    26    27 1   
    49    26    47 1   
    50    26    48 1   
    51    27    28 1   
    52    27    49 1   
    53    27    50 1   
@<TRIPOS>SUBSTRUCTURE
     1 4P1         1 TEMP              0 ****  ****    0 ROOT
