@<TRIPOS>MOLECULE
4P3
   50    52     1     0     0
SMALL
abcg2


@<TRIPOS>ATOM
      1 O2          -6.0560    -3.1780    -1.6280 o          1 4P3      -0.595100
      2 C20         -6.5670    -2.0940    -1.3830 c          1 4P3       0.616700
      3 N1          -7.7460    -1.7090    -1.8910 nt         1 4P3      -0.601000
      4 C19         -5.8890    -1.1140    -0.4770 ca         1 4P3      -0.152600
      5 C21         -6.5780    -0.1310     0.2260 ca         1 4P3      -0.076000
      6 C22         -5.8980     0.7340     1.0650 ca         1 4P3      -0.116000
      7 C           -4.5220     0.6290     1.1910 ca         1 4P3       0.146000
      8 CL          -3.7170     1.7150     2.2710 cl         1 4P3      -0.193000
      9 C18         -4.5120    -1.2160    -0.3170 ca         1 4P3      -0.038000
     10 C1          -3.8000    -0.3420     0.4980 cp         1 4P3      -0.043000
     11 C2          -2.3300    -0.4830     0.5990 cp         1 4P3       0.000000
     12 C17         -1.5010     0.5690     0.2140 ca         1 4P3      -0.170000
     13 C14         -0.1210     0.4250     0.2640 ca         1 4P3       0.140100
     14 O1           0.7530     1.3800    -0.1060 os         1 4P3      -0.318100
     15 C15          0.2600     2.6650    -0.3790 c3         1 4P3       0.087600
     16 C16          1.4650     3.5500    -0.5970 c3         1 4P3       0.308000
     17 F3           1.0730     4.8090    -0.8210 f          1 4P3      -0.107667
     18 F2           2.2810     3.5620     0.4590 f          1 4P3      -0.107667
     19 F1           2.1900     3.1640    -1.6520 f          1 4P3      -0.107667
     20 C5           0.4350    -0.7770     0.7130 ca         1 4P3      -0.068000
     21 C4          -0.3940    -1.8150     1.0910 ca         1 4P3      -0.062000
     22 C3          -1.7740    -1.6790     1.0330 ca         1 4P3      -0.116000
     23 N            1.8450    -0.9130     0.8080 n          1 4P3      -0.223400
     24 C6           2.4660    -0.3820     2.0100 c3         1 4P3       0.102300
     25 C7           2.5010    -1.4240    -0.2500 c          1 4P3       0.638700
     26 O            1.9480    -1.7830    -1.2730 o          1 4P3      -0.557100
     27 C8           3.9890    -1.5810    -0.1150 ca         1 4P3      -0.184600
     28 C13          4.8820    -0.5760    -0.4610 ca         1 4P3       0.164000
     29 CL1          4.2520     0.9650    -0.9170 cl         1 4P3      -0.163000
     30 C12          6.2520    -0.7800    -0.4290 ca         1 4P3      -0.125000
     31 C11          6.7380    -2.0220    -0.0460 ca         1 4P3      -0.065000
     32 C10          5.8740    -3.0490     0.3050 ca         1 4P3      -0.157000
     33 C9           4.5180    -2.8040     0.2570 ca         1 4P3       0.210000
     34 F            3.6590    -3.7740     0.5960 f          1 4P3      -0.166000
     35 H1          -8.2300    -2.3140    -2.5350 hn         1 4P3       0.315000
     36 H2          -8.0860    -0.7660    -1.8160 hn         1 4P3       0.315000
     37 H3          -7.6540    -0.0380     0.1540 ha         1 4P3       0.118000
     38 H4          -6.4400     1.4830     1.6260 ha         1 4P3       0.133000
     39 H5          -3.9680    -1.9810    -0.8570 ha         1 4P3       0.149000
     40 H6          -1.9500     1.4860    -0.1450 ha         1 4P3       0.124000
     41 H7          -0.3620     2.6880    -1.2790 h1         1 4P3       0.072700
     42 H8          -0.3260     3.0650     0.4550 h1         1 4P3       0.072700
     43 H9           0.0460    -2.7390     1.4430 ha         1 4P3       0.133000
     44 H10         -2.4110    -2.4990     1.3380 ha         1 4P3       0.130000
     45 H11          1.9880    -0.8090     2.8890 h1         1 4P3       0.045700
     46 H12          3.5210    -0.6350     2.0440 h1         1 4P3       0.045700
     47 H13          2.3720     0.7030     2.0470 h1         1 4P3       0.045700
     48 H14          6.9300     0.0180    -0.6980 ha         1 4P3       0.137000
     49 H15          7.8060    -2.1900    -0.0180 ha         1 4P3       0.124000
     50 H16          6.2450    -4.0180     0.6100 ha         1 4P3       0.139000
@<TRIPOS>BOND
     1     1     2 2   
     2     2     3 1   
     3     2     4 1   
     4     3    35 1   
     5     3    36 1   
     6     4     5 ar  
     7     4     9 ar  
     8     5     6 ar  
     9     5    37 1   
    10     6     7 ar  
    11     6    38 1   
    12     7     8 1   
    13     7    10 ar  
    14     9    10 ar  
    15     9    39 1   
    16    10    11 1   
    17    11    12 ar  
    18    11    22 ar  
    19    12    13 ar  
    20    12    40 1   
    21    13    14 1   
    22    13    20 ar  
    23    14    15 1   
    24    15    16 1   
    25    15    41 1   
    26    15    42 1   
    27    16    17 1   
    28    16    18 1   
    29    16    19 1   
    30    20    21 ar  
    31    20    23 1   
    32    21    22 ar  
    33    21    43 1   
    34    22    44 1   
    35    23    24 1   
    36    23    25 1   
    37    24    45 1   
    38    24    46 1   
    39    24    47 1   
    40    25    26 2   
    41    25    27 1   
    42    27    28 ar  
    43    27    33 ar  
    44    28    29 1   
    45    28    30 ar  
    46    30    31 ar  
    47    30    48 1   
    48    31    32 ar  
    49    31    49 1   
    50    32    33 ar  
    51    32    50 1   
    52    33    34 1   
@<TRIPOS>SUBSTRUCTURE
     1 4P3         1 TEMP              0 ****  ****    0 ROOT
