@<TRIPOS>MOLECULE
4P3
   50    52     1     0     0
SMALL
No Charge or Current Charge


@<TRIPOS>ATOM
      1 O2          -6.0480    -2.7570    -2.3660 o          1 4P3      -0.595100
      2 C20         -6.6510    -1.9490    -1.6790 c          1 4P3       0.616700
      3 N1          -7.9900    -1.8390    -1.8220 nt         1 4P3      -0.601000
      4 C19         -5.9600    -1.0600    -0.6680 ca         1 4P3      -0.152600
      5 C21         -6.6710    -0.1280     0.1230 ca         1 4P3      -0.076000
      6 C22         -5.9930     0.6760     1.0530 ca         1 4P3      -0.116000
      7 C           -4.6020     0.5750     1.2080 ca         1 4P3       0.146000
      8 Cl          -3.8390     1.5880     2.4350 cl         1 4P3      -0.193000
      9 C18         -4.5600    -1.1550    -0.5030 ca         1 4P3      -0.038000
     10 C1          -3.8570    -0.3450     0.4230 cp         1 4P3      -0.043000
     11 C2          -2.3750    -0.4870     0.5490 cp         1 4P3       0.000000
     12 C17         -1.5160     0.6260     0.4070 ca         1 4P3      -0.170000
     13 C14         -0.1140     0.4890     0.5120 ca         1 4P3       0.140100
     14 O1           0.7300     1.5650     0.3060 os         1 4P3      -0.318100
     15 C15          0.2540     2.8890    -0.0130 c3         1 4P3       0.087600
     16 C16          1.4660     3.8330    -0.1780 c3         1 4P3       0.308000
     17 F3           1.0560     5.0890    -0.4640 f          1 4P3      -0.107667
     18 F2           2.2030     3.8840     0.9560 f          1 4P3      -0.107667
     19 F1           2.2730     3.4200    -1.1840 f          1 4P3      -0.107667
     20 C5           0.4550    -0.7760     0.8140 ca         1 4P3      -0.068000
     21 C4          -0.3970    -1.9000     0.8510 ca         1 4P3      -0.062000
     22 C3          -1.7890    -1.7550     0.7470 ca         1 4P3      -0.116000
     23 N            1.8910    -0.9680     0.7790 n          1 4P3      -0.223400
     24 C6           2.7280    -0.0720     1.6130 c3         1 4P3       0.102300
     25 C7           2.5340    -1.9080    -0.0730 c          1 4P3       0.638700
     26 O            1.9120    -2.6620    -0.8120 o          1 4P3      -0.557100
     27 C8           4.0260    -1.9310    -0.0760 ca         1 4P3      -0.184600
     28 C13          4.7600    -1.0080    -0.8440 ca         1 4P3       0.164000
     29 Cl1          3.9390     0.1990    -1.8320 cl         1 4P3      -0.163000
     30 C12          6.1650    -1.0450    -0.8380 ca         1 4P3      -0.125000
     31 C11          6.8440    -2.0070    -0.0690 ca         1 4P3      -0.065000
     32 C10          6.1110    -2.9340     0.6910 ca         1 4P3      -0.157000
     33 C9           4.7080    -2.8960     0.6830 ca         1 4P3       0.210000
     34 F            4.0160    -3.7870     1.4260 f          1 4P3      -0.166000
     35 H1          -8.4610    -2.4270    -2.4930 hn         1 4P3       0.315000
     36 H2          -8.5090    -1.1790    -1.2660 hn         1 4P3       0.315000
     37 H3          -7.7490    -0.0190     0.0340 ha         1 4P3       0.118000
     38 H4          -6.5520     1.3810     1.6640 ha         1 4P3       0.133000
     39 H5          -3.9950    -1.8610    -1.1090 ha         1 4P3       0.149000
     40 H6          -1.9640     1.5900     0.1910 ha         1 4P3       0.124000
     41 H7          -0.3200     2.8800    -0.9490 h1         1 4P3       0.072700
     42 H8          -0.3910     3.2740     0.7870 h1         1 4P3       0.072700
     43 H9           0.0180    -2.8950     0.9990 ha         1 4P3       0.133000
     44 H10         -2.4220    -2.6360     0.8220 ha         1 4P3       0.130000
     45 H11          2.1000     0.4610     2.3380 h1         1 4P3       0.045700
     46 H12          3.4710    -0.6570     2.1710 h1         1 4P3       0.045700
     47 H13          3.2400     0.6630     0.9800 h1         1 4P3       0.045700
     48 H14          6.7270    -0.3290    -1.4320 ha         1 4P3       0.137000
     49 H15          7.9320    -2.0340    -0.0660 ha         1 4P3       0.124000
     50 H16          6.6280    -3.6820     1.2870 ha         1 4P3       0.139000
@<TRIPOS>BOND
     1     1     2 2   
     2     2     3 1   
     3     2     4 1   
     4     3    35 1   
     5     3    36 1   
     6     4     5 ar  
     7     4     9 ar  
     8     5     6 ar  
     9     5    37 1   
    10     6     7 ar  
    11     6    38 1   
    12     7     8 1   
    13     7    10 ar  
    14     9    10 ar  
    15     9    39 1   
    16    10    11 1   
    17    11    12 ar  
    18    11    22 ar  
    19    12    13 ar  
    20    12    40 1   
    21    13    14 1   
    22    13    20 ar  
    23    14    15 1   
    24    15    16 1   
    25    15    41 1   
    26    15    42 1   
    27    16    17 1   
    28    16    18 1   
    29    16    19 1   
    30    20    21 ar  
    31    20    23 1   
    32    21    22 ar  
    33    21    43 1   
    34    22    44 1   
    35    23    24 1   
    36    23    25 1   
    37    24    45 1   
    38    24    46 1   
    39    24    47 1   
    40    25    26 2   
    41    25    27 1   
    42    27    28 ar  
    43    27    33 ar  
    44    28    29 1   
    45    28    30 ar  
    46    30    31 ar  
    47    30    48 1   
    48    31    32 ar  
    49    31    49 1   
    50    32    33 ar  
    51    32    50 1   
    52    33    34 1   
@<TRIPOS>SUBSTRUCTURE
     1 4P3         1 TEMP              0 ****  ****    0 ROOT
