@<TRIPOS>MOLECULE
4P4
   50    54     1     0     0
SMALL
No Charge or Current Charge


@<TRIPOS>ATOM
      1 C4         -21.3340     8.2840   -16.3380 ca         1 4P4      -0.114000
      2 C5         -20.4550     9.2840   -16.7820 ca         1 4P4       0.159000
      3 C6         -20.2780     9.5160   -18.1530 ca         1 4P4      -0.136000
      4 C11        -24.7550     4.4570   -15.7670 ca         1 4P4       0.025000
      5 C8         -23.0060     6.4030   -16.7790 cp         1 4P4       0.399500
      6 C9         -23.3900     5.3080   -17.5870 ca         1 4P4      -0.126000
      7 C10        -24.2680     4.3330   -17.0880 ca         1 4P4      -0.067000
      8 C12        -25.6480     3.5200   -15.1700 ca         1 4P4      -0.262600
      9 C13        -26.0970     3.7600   -13.8580 ca         1 4P4       0.428900
     10 C3         -22.0630     7.4780   -17.2570 cp         1 4P4      -0.119500
     11 C1         -20.9870     8.7420   -19.0850 ca         1 4P4      -0.089000
     12 C2         -21.8680     7.7390   -18.6430 ca         1 4P4      -0.110000
     13 F7         -19.7750    10.0280   -15.8830 f          1 4P4      -0.183000
     14 N14        -25.7310     4.8290   -13.1230 nb         1 4P4      -0.785000
     15 C15        -24.9010     5.6900   -13.6980 ca         1 4P4       0.677900
     16 C16        -24.3480     5.5900   -15.0140 ca         1 4P4       0.168000
     17 N17        -23.4830     6.5240   -15.5190 nb         1 4P4      -0.669000
     18 N18        -24.6450     6.6780   -12.8230 nv         1 4P4      -1.059900
     19 C19        -26.1040     2.2550   -15.8380 c          1 4P4       0.628700
     20 O20        -25.3790     1.5880   -16.5600 o          1 4P4      -0.608100
     21 N21        -27.3790     1.8320   -15.5270 ns         1 4P4      -0.505900
     22 C22        -27.9670     0.6150   -16.0360 cy         1 4P4       0.081700
     23 C23        -27.4250    -0.7770   -15.5720 cy         1 4P4       0.095500
     24 N24        -28.8310    -1.2730   -15.7520 nj         1 4P4      -0.432800
     25 C25        -29.3420     0.1140   -15.4840 cy         1 4P4       0.095500
     26 C26        -29.0410    -1.8770   -14.4760 c          1 4P4       0.646100
     27 O27        -28.8950    -1.6140   -13.2860 o          1 4P4      -0.612100
     28 C28        -29.6100    -3.1650   -15.0410 cx         1 4P4      -0.241700
     29 C29        -28.6590    -4.2300   -15.5580 cx         1 4P4      -0.097400
     30 C30        -29.4050    -4.4520   -14.2640 cx         1 4P4      -0.097400
     31 H1         -21.4420     8.1300   -15.2670 ha         1 4P4       0.143000
     32 H2         -19.5960    10.2930   -18.4890 ha         1 4P4       0.135000
     33 H3         -22.9990     5.2020   -18.5930 ha         1 4P4       0.129000
     34 H4         -24.5560     3.5140   -17.7390 ha         1 4P4       0.151000
     35 H5         -26.7580     3.0590   -13.3500 h4         1 4P4       0.016100
     36 H6         -20.8580     8.9220   -20.1500 ha         1 4P4       0.121000
     37 H7         -22.4140     7.1720   -19.3930 ha         1 4P4       0.119000
     38 H8         -24.8280     6.4300   -11.8600 hn         1 4P4       0.513500
     39 H9         -23.8020     7.2130   -13.0040 hn         1 4P4       0.513500
     40 H10        -27.9310     2.4490   -14.9430 hn         1 4P4       0.320500
     41 H11        -27.9850     0.6890   -17.1300 h1         1 4P4       0.085700
     42 H12        -26.7120    -1.2300   -16.2700 h1         1 4P4       0.063950
     43 H13        -27.0100    -0.7710   -14.5560 h1         1 4P4       0.063950
     44 H14        -29.5280     0.3970   -14.4400 h1         1 4P4       0.063950
     45 H15        -30.1980     0.3900   -16.1090 h1         1 4P4       0.063950
     46 H16        -30.5670    -3.0650   -15.5480 hc         1 4P4       0.081700
     47 H17        -28.9680    -4.8060   -16.4280 hc         1 4P4       0.081700
     48 H18        -27.5900    -4.0370   -15.4990 hc         1 4P4       0.081700
     49 H19        -28.8320    -4.4130   -13.3400 hc         1 4P4       0.081700
     50 H20        -30.2130    -5.1790   -14.2640 hc         1 4P4       0.081700
@<TRIPOS>BOND
     1     1     2 ar  
     2     1    10 ar  
     3     1    31 1   
     4     2     3 ar  
     5     2    13 1   
     6     3    11 ar  
     7     3    32 1   
     8     4     7 ar  
     9     4     8 ar  
    10     4    16 ar  
    11     5     6 ar  
    12     5    10 1   
    13     5    17 ar  
    14     6     7 ar  
    15     6    33 1   
    16     7    34 1   
    17     8     9 ar  
    18     8    19 1   
    19     9    14 ar  
    20     9    35 1   
    21    10    12 ar  
    22    11    12 ar  
    23    11    36 1   
    24    12    37 1   
    25    14    15 ar  
    26    15    16 ar  
    27    15    18 1   
    28    16    17 ar  
    29    18    38 1   
    30    18    39 1   
    31    19    20 2   
    32    19    21 1   
    33    21    22 1   
    34    21    40 1   
    35    22    23 1   
    36    22    25 1   
    37    22    41 1   
    38    23    24 1   
    39    23    42 1   
    40    23    43 1   
    41    24    25 1   
    42    24    26 1   
    43    25    44 1   
    44    25    45 1   
    45    26    27 2   
    46    26    28 1   
    47    28    29 1   
    48    28    30 1   
    49    28    46 1   
    50    29    30 1   
    51    29    47 1   
    52    29    48 1   
    53    30    49 1   
    54    30    50 1   
@<TRIPOS>SUBSTRUCTURE
     1 4P4         1 TEMP              0 ****  ****    0 ROOT
