@<TRIPOS>MOLECULE
4P4
   50    54     1     0     0
SMALL
abcg2


@<TRIPOS>ATOM
      1 C4         -21.6530     8.4350   -16.0960 ca         1 4P4      -0.114000
      2 C5         -20.8710     9.5130   -16.4520 ca         1 4P4       0.159000
      3 C6         -20.6860     9.9090   -17.7650 ca         1 4P4      -0.136000
      4 C11        -24.6310     4.3340   -15.9410 ca         1 4P4       0.025000
      5 C8         -23.1160     6.5280   -16.7290 cp         1 4P4       0.399500
      6 C9         -23.3280     5.4540   -17.6270 ca         1 4P4      -0.126000
      7 C10        -24.0720     4.3720   -17.2390 ca         1 4P4      -0.067000
      8 C12        -25.4350     3.2780   -15.4100 ca         1 4P4      -0.262600
      9 C13        -25.9180     3.4340   -14.1300 ca         1 4P4       0.428900
     10 C3         -22.2830     7.6940   -17.1010 cp         1 4P4      -0.119500
     11 C1         -21.3220     9.1740   -18.7590 ca         1 4P4      -0.089000
     12 C2         -22.1080     8.0750   -18.4360 ca         1 4P4      -0.110000
     13 F7         -20.2480    10.2120   -15.4680 f          1 4P4      -0.183000
     14 N14        -25.7010     4.5000   -13.3340 nb         1 4P4      -0.785000
     15 C15        -24.9620     5.4970   -13.8000 ca         1 4P4       0.677900
     16 C16        -24.3840     5.4620   -15.1280 ca         1 4P4       0.168000
     17 N17        -23.6430     6.5160   -15.5160 nb         1 4P4      -0.669000
     18 N18        -24.7440     6.5710   -13.0280 nv         1 4P4      -1.059900
     19 C19        -25.6710     2.0180   -16.1620 c          1 4P4       0.628700
     20 O20        -24.8080     1.4990   -16.8770 o          1 4P4      -0.608100
     21 N21        -26.8860     1.4460   -16.0020 ns         1 4P4      -0.505900
     22 C22        -27.1960     0.1620   -16.5800 cy         1 4P4       0.081700
     23 C23        -26.5390    -1.0750   -15.9020 cy         1 4P4       0.095500
     24 N24        -27.8850    -1.5580   -15.5900 nj         1 4P4      -0.432800
     25 C25        -28.5770    -0.3970   -16.1640 cy         1 4P4       0.095500
     26 C26        -28.2710    -2.6280   -14.8820 c          1 4P4       0.646100
     27 O27        -27.4430    -3.4320   -14.4320 o          1 4P4      -0.612100
     28 C28        -29.7370    -2.7770   -14.6800 cx         1 4P4      -0.241700
     29 C29        -30.3010    -4.1750   -14.5510 cx         1 4P4      -0.097400
     30 C30        -30.2150    -3.3070   -13.3430 cx         1 4P4      -0.097400
     31 H1         -21.7660     8.1620   -15.0560 ha         1 4P4       0.143000
     32 H2         -20.0640    10.7640   -17.9950 ha         1 4P4       0.135000
     33 H3         -22.8850     5.4750   -18.6130 ha         1 4P4       0.129000
     34 H4         -24.2250     3.5410   -17.9120 ha         1 4P4       0.151000
     35 H5         -26.5050     2.6420   -13.6770 h4         1 4P4       0.016100
     36 H6         -21.2040     9.4640   -19.7950 ha         1 4P4       0.121000
     37 H7         -22.6020     7.5280   -19.2270 ha         1 4P4       0.119000
     38 H8         -25.1050     6.5990   -12.0890 hn         1 4P4       0.513500
     39 H9         -24.1570     7.3140   -13.3690 hn         1 4P4       0.513500
     40 H10        -27.5950     1.9210   -15.4680 hn         1 4P4       0.320500
     41 H11        -27.0390     0.1830   -17.6560 h1         1 4P4       0.085700
     42 H12        -25.9780    -1.7320   -16.5670 h1         1 4P4       0.063950
     43 H13        -25.9440    -0.8410   -15.0180 h1         1 4P4       0.063950
     44 H14        -29.1050     0.2080   -15.4230 h1         1 4P4       0.063950
     45 H15        -29.2480    -0.6370   -16.9880 h1         1 4P4       0.063950
     46 H16        -30.3650    -2.0410   -15.1610 hc         1 4P4       0.081700
     47 H17        -31.2710    -4.3510   -14.9970 hc         1 4P4       0.081700
     48 H18        -29.5910    -4.9860   -14.6370 hc         1 4P4       0.081700
     49 H19        -29.4480    -3.5340   -12.6150 hc         1 4P4       0.081700
     50 H20        -31.1230    -2.8750   -12.9460 hc         1 4P4       0.081700
@<TRIPOS>BOND
     1     1     2 ar  
     2     1    10 ar  
     3     1    31 1   
     4     2     3 ar  
     5     2    13 1   
     6     3    11 ar  
     7     3    32 1   
     8     4     7 ar  
     9     4     8 ar  
    10     4    16 ar  
    11     5     6 ar  
    12     5    10 1   
    13     5    17 ar  
    14     6     7 ar  
    15     6    33 1   
    16     7    34 1   
    17     8     9 ar  
    18     8    19 1   
    19     9    14 ar  
    20     9    35 1   
    21    10    12 ar  
    22    11    12 ar  
    23    11    36 1   
    24    12    37 1   
    25    14    15 ar  
    26    15    16 ar  
    27    15    18 1   
    28    16    17 ar  
    29    18    38 1   
    30    18    39 1   
    31    19    20 2   
    32    19    21 1   
    33    21    22 1   
    34    21    40 1   
    35    22    23 1   
    36    22    25 1   
    37    22    41 1   
    38    23    24 1   
    39    23    42 1   
    40    23    43 1   
    41    24    25 1   
    42    24    26 1   
    43    25    44 1   
    44    25    45 1   
    45    26    27 2   
    46    26    28 1   
    47    28    29 1   
    48    28    30 1   
    49    28    46 1   
    50    29    30 1   
    51    29    47 1   
    52    29    48 1   
    53    30    49 1   
    54    30    50 1   
@<TRIPOS>SUBSTRUCTURE
     1 4P4         1 TEMP              0 ****  ****    0 ROOT
