@<TRIPOS>MOLECULE
4P5
   15    16     1     0     0
SMALL
No Charge or Current Charge


@<TRIPOS>ATOM
      1 C2          -1.2120    -0.6260     0.0100 cc         1 4P5       0.020000
      2 C3          -1.2120     0.6790     0.0170 cd         1 4P5      -0.226000
      3 C5          -3.2910     0.0050     0.0010 cc         1 4P5       0.087900
      4 C7           0.9300    -0.0330     0.0250 cd         1 4P5      -0.152600
      5 C9           2.4210    -0.0770     0.0340 c          1 4P5       0.728600
      6 O11          2.9830    -1.1630     0.0310 o          1 4P5      -0.716000
      7 O10          3.0240     0.9870     0.0430 o          1 4P5      -0.716000
      8 N8           0.1020     1.1320     0.0270 na         1 4P5      -0.083000
      9 C6           0.0830    -1.1450     0.0150 cc         1 4P5      -0.186000
     10 O1          -2.4770    -1.1380    -0.0000 os         1 4P5      -0.245000
     11 C4          -2.5210     1.1640     0.0120 cd         1 4P5      -0.159000
     12 H5          -4.3620    -0.1450    -0.0060 h4         1 4P5       0.023100
     13 H6           0.3550    -2.1960     0.0110 ha         1 4P5       0.144000
     14 H4          -2.8660     2.1930     0.0160 ha         1 4P5       0.121000
     15 HN8          0.4220     2.0960     0.0340 hn         1 4P5       0.360000
@<TRIPOS>BOND
     1     1     2 2   
     2     1     9 1   
     3     1    10 1   
     4     2     8 1   
     5     2    11 1   
     6     3    10 1   
     7     3    11 2   
     8     3    12 1   
     9     4     5 1   
    10     4     8 1   
    11     4     9 2   
    12     5     6 1   
    13     5     7 1   
    14     8    15 1   
    15     9    13 1   
    16    11    14 1   
@<TRIPOS>SUBSTRUCTURE
     1 4P5         1 TEMP              0 ****  ****    0 ROOT
