@<TRIPOS>MOLECULE
4P5
   15    16     1     0     0
SMALL
abcg2


@<TRIPOS>ATOM
      1 C2          -1.2320    -0.6730     0.0100 cc         1 4P5       0.020000
      2 C3          -1.1710     0.7010     0.0160 cd         1 4P5      -0.226000
      3 C5          -3.2710     0.0480     0.0020 cc         1 4P5       0.087900
      4 C7           0.8990    -0.0980     0.0260 cd         1 4P5      -0.152600
      5 C9           2.3950    -0.0220     0.0330 c          1 4P5       0.728600
      6 O11          3.0050    -1.1070     0.0280 o          1 4P5      -0.716000
      7 O10          2.8840     1.1270     0.0430 o          1 4P5      -0.716000
      8 N8           0.1400     1.0460     0.0240 na         1 4P5      -0.083000
      9 C6           0.0690    -1.2080     0.0160 cc         1 4P5      -0.186000
     10 O1          -2.5170    -1.0900     0.0020 os         1 4P5      -0.245000
     11 C4          -2.5150     1.1780     0.0110 cd         1 4P5      -0.159000
     12 H5          -4.3400    -0.0930    -0.0060 h4         1 4P5       0.023100
     13 H6           0.3860    -2.2380     0.0120 ha         1 4P5       0.144000
     14 H4          -2.8900     2.1880     0.0130 ha         1 4P5       0.121000
     15 HN8          0.5350     1.9720     0.0400 hn         1 4P5       0.360000
@<TRIPOS>BOND
     1     1     2 2   
     2     1     9 1   
     3     1    10 1   
     4     2     8 1   
     5     2    11 1   
     6     3    10 1   
     7     3    11 2   
     8     3    12 1   
     9     4     5 1   
    10     4     8 1   
    11     4     9 2   
    12     5     6 1   
    13     5     7 1   
    14     8    15 1   
    15     9    13 1   
    16    11    14 1   
@<TRIPOS>SUBSTRUCTURE
     1 4P5         1 TEMP              0 ****  ****    0 ROOT
