@<TRIPOS>MOLECULE
4P6
   32    34     1     0     0
SMALL
bcc


@<TRIPOS>ATOM
      1 C1          -2.9110    -2.2120    -0.8860 ca         1 4P6      -0.253300
      2 C2           3.9040    -2.2360     0.8720 cc         1 4P6      -0.150000
      3 C3          -1.9970    -1.1720    -0.9440 ca         1 4P6      -0.077000
      4 C4           2.5150    -1.9820     0.9520 cc         1 4P6      -0.139000
      5 C5          -3.8880    -2.1810     0.0970 ca         1 4P6       0.406200
      6 C6          -3.1220    -0.2010     0.9130 ca         1 4P6       0.433200
      7 C7           4.5790    -1.2340     0.2400 cd         1 4P6      -0.116100
      8 C8          -2.0960    -0.1330    -0.0250 ca         1 4P6      -0.248200
      9 C9           2.1410    -0.7800     0.3970 cd         1 4P6      -0.042900
     10 C10         -1.2050     1.0580    -0.0590 ce         1 4P6       0.513200
     11 C11          0.2620     0.8780    -0.0120 ce         1 4P6      -0.211800
     12 C12          0.7730    -0.3220     0.3240 cf         1 4P6      -0.044200
     13 C13          1.0580     2.1120    -0.3170 c6         1 4P6      -0.040200
     14 C14          0.3710     3.3230     0.3040 c6         1 4P6      -0.103400
     15 C15         -1.0610     3.4160    -0.1840 c6         1 4P6       0.101800
     16 N16         -3.9940    -1.1970     0.9840 nb         1 4P6      -0.669000
     17 N17         -1.8050     2.1780    -0.1520 n2         1 4P6      -0.575900
     18 S18          3.5310     0.0240    -0.2520 ss         1 4P6      -0.074800
     19 H19         -2.8700    -3.0310    -1.5900 ha         1 4P6       0.142000
     20 H21         -1.2260    -1.1650    -1.7040 ha         1 4P6       0.141000
     21 H22          1.8030    -2.6590     1.4030 ha         1 4P6       0.153000
     22 H23         -4.6140    -2.9820     0.1720 h4         1 4P6       0.019100
     23 H24         -3.2310     0.5920     1.6460 h4         1 4P6       0.029100
     24 H25          5.6360    -1.1690     0.0370 h4         1 4P6       0.169000
     25 H26          0.0770    -1.1070     0.5980 ha         1 4P6       0.136000
     26 H28          2.0730     2.0400     0.0690 hc         1 4P6       0.055700
     27 H27          1.1400     2.2460    -1.4010 hc         1 4P6       0.055700
     28 H30          0.3910     3.2290     1.3930 hc         1 4P6       0.052200
     29 H29          0.9100     4.2380     0.0520 hc         1 4P6       0.052200
     30 H32         -1.6200     4.1530     0.3980 h1         1 4P6       0.064700
     31 H31         -1.0860     3.7810    -1.2170 h1         1 4P6       0.064700
     32 H20          4.3800    -3.1230     1.2620 ha         1 4P6       0.154000
@<TRIPOS>BOND
     1     1     3 ar  
     2     1     5 ar  
     3     1    19 1   
     4     2     4 1   
     5     2     7 2   
     6     2    32 1   
     7     3     8 ar  
     8     3    20 1   
     9     4     9 2   
    10     4    21 1   
    11     5    16 ar  
    12     5    22 1   
    13     6     8 ar  
    14     6    16 ar  
    15     6    23 1   
    16     7    18 1   
    17     7    24 1   
    18     8    10 1   
    19     9    12 1   
    20     9    18 1   
    21    10    11 1   
    22    10    17 2   
    23    11    12 2   
    24    11    13 1   
    25    12    25 1   
    26    13    14 1   
    27    13    26 1   
    28    13    27 1   
    29    14    15 1   
    30    14    28 1   
    31    14    29 1   
    32    15    17 1   
    33    15    30 1   
    34    15    31 1   
@<TRIPOS>SUBSTRUCTURE
     1 4P6         1 TEMP              0 ****  ****    0 ROOT
