@<TRIPOS>MOLECULE
4P6
   32    34     1     0     0
SMALL
No Charge or Current Charge


@<TRIPOS>ATOM
      1 C1          -2.9330    -2.2040    -0.9880 ca         1 4P6      -0.170000
      2 C2           4.1740    -1.9940     0.9050 cc         1 4P6      -0.132000
      3 C3          -1.9590    -1.2090    -0.8170 ca         1 4P6      -0.059000
      4 C4           2.8230    -1.7240     1.2300 cc         1 4P6      -0.121000
      5 C5          -4.1470    -2.1040    -0.2920 ca         1 4P6       0.340900
      6 C6          -3.4920    -0.1120     0.6990 ca         1 4P6       0.367900
      7 C7           4.6170    -1.3290    -0.2070 cd         1 4P6      -0.243000
      8 C8          -2.2290    -0.1460     0.0730 ca         1 4P6      -0.182900
      9 C9           2.2100    -0.8360     0.3830 cd         1 4P6      -0.187800
     10 C10         -1.2720     0.9840     0.2660 ce         1 4P6       0.513200
     11 C11          0.2040     0.7660     0.1590 ce         1 4P6      -0.211800
     12 C12          0.8010    -0.4320     0.4600 cf         1 4P6      -0.094200
     13 C13          1.0360     1.9970    -0.2560 c6         1 4P6      -0.040200
     14 C14          0.4540     3.2970     0.3260 c6         1 4P6      -0.103400
     15 C15         -1.0520     3.3690     0.0420 c6         1 4P6       0.101800
     16 N16         -4.4330    -1.0740     0.5360 nb         1 4P6      -0.669000
     17 N17         -1.7520     2.1680     0.5170 n2         1 4P6      -0.575900
     18 S18          3.3310    -0.3280    -0.9060 ss         1 4P6       0.215000
     19 H19         -2.7590    -3.0420    -1.6580 ha         1 4P6       0.124000
     20 H21         -1.0260    -1.2590    -1.3750 ha         1 4P6       0.123000
     21 H22          2.3310    -2.1890     2.0800 ha         1 4P6       0.135000
     22 H23         -4.9200    -2.8630    -0.4080 h4         1 4P6       0.019100
     23 H24         -3.7640     0.7010     1.3720 h4         1 4P6       0.029100
     24 H25          5.5980    -1.3600    -0.6660 h4         1 4P6       0.151000
     25 H26          0.1570    -1.2230     0.8510 ha         1 4P6       0.186000
     26 H28          2.0700     1.9120     0.0990 hc         1 4P6       0.055700
     27 H27          1.0770     2.0600    -1.3520 hc         1 4P6       0.055700
     28 H30          0.6240     3.3260     1.4110 hc         1 4P6       0.052200
     29 H29          0.9650     4.1710    -0.1000 hc         1 4P6       0.052200
     30 H32         -1.4820     4.2540     0.5330 h1         1 4P6       0.064700
     31 H31         -1.2210     3.4740    -1.0410 h1         1 4P6       0.064700
     32 H20          4.7870    -2.6730     1.4930 ha         1 4P6       0.136000
@<TRIPOS>BOND
     1     1     3 ar  
     2     1     5 ar  
     3     1    19 1   
     4     2     4 1   
     5     2     7 2   
     6     2    32 1   
     7     3     8 ar  
     8     3    20 1   
     9     4     9 2   
    10     4    21 1   
    11     5    16 ar  
    12     5    22 1   
    13     6     8 ar  
    14     6    16 ar  
    15     6    23 1   
    16     7    18 1   
    17     7    24 1   
    18     8    10 1   
    19     9    12 1   
    20     9    18 1   
    21    10    11 1   
    22    10    17 2   
    23    11    12 2   
    24    11    13 1   
    25    12    25 1   
    26    13    14 1   
    27    13    26 1   
    28    13    27 1   
    29    14    15 1   
    30    14    28 1   
    31    14    29 1   
    32    15    17 1   
    33    15    30 1   
    34    15    31 1   
@<TRIPOS>SUBSTRUCTURE
     1 4P6         1 TEMP              0 ****  ****    0 ROOT
