@<TRIPOS>MOLECULE
4P7
   33    35     1     0     0
SMALL
No Charge or Current Charge


@<TRIPOS>ATOM
      1 C17         -2.8980    -2.1710    -1.0810 ca         1 4P7      -0.172000
      2 C16         -1.9090    -1.1770    -1.0150 ca         1 4P7      -0.059000
      3 C4           3.3380    -0.4800    -0.7960 cc         1 4P7      -0.153000
      4 C18         -3.9840    -2.1190    -0.1930 ca         1 4P7       0.337900
      5 C14         -3.1760    -0.1790     0.7880 ca         1 4P7       0.365900
      6 C3           4.5660    -0.9980    -0.5000 cd         1 4P7      -0.208000
      7 C1           3.0600    -1.6420     1.0960 cd         1 4P7      -0.177000
      8 C15         -2.0360    -0.1660    -0.0410 ca         1 4P7      -0.177900
      9 C5           2.3980    -0.8610     0.1860 cc         1 4P7      -0.142800
     10 C12         -1.0590     0.9350     0.0490 cf         1 4P7       0.516200
     11 C11          0.4060     0.7190    -0.0160 cf         1 4P7      -0.229800
     12 C6           0.9820    -0.5080     0.1930 ce         1 4P7      -0.077200
     13 C10          1.2870     1.9680    -0.2560 c6         1 4P7      -0.034200
     14 C9           0.6600     3.2190     0.3800 c6         1 4P7      -0.104400
     15 C8          -0.8080     3.3360    -0.0500 c6         1 4P7       0.102800
     16 N13         -4.1300    -1.1400     0.7280 nb         1 4P7      -0.671000
     17 N7          -1.5720     2.1170     0.2550 n2         1 4P7      -0.582900
     18 N2           4.3960    -1.7240     0.6830 na         1 4P7      -0.100000
     19 H32         -2.8330    -2.9720    -1.8130 ha         1 4P7       0.123000
     20 H31         -1.0690    -1.1890    -1.7080 ha         1 4P7       0.124000
     21 H33         -4.7640    -2.8780    -0.2240 h4         1 4P7       0.017100
     22 H30         -3.3300     0.5920     1.5430 h4         1 4P7       0.028100
     23 H21          5.5160    -0.9190    -1.0190 h4         1 4P7       0.147000
     24 H19          2.6940    -2.1370     1.9900 h4         1 4P7       0.148000
     25 H23          0.3380    -1.3450     0.4670 ha         1 4P7       0.173000
     26 H28          2.2920     1.8320     0.1650 hc         1 4P7       0.052700
     27 H29          1.4140     2.1200    -1.3370 hc         1 4P7       0.052700
     28 H27          0.7200     3.1480     1.4750 hc         1 4P7       0.049200
     29 H26          1.2170     4.1190     0.0870 hc         1 4P7       0.049200
     30 H24         -1.2770     4.1900     0.4610 h1         1 4P7       0.061200
     31 H25         -0.8630     3.5270    -1.1330 h1         1 4P7       0.061200
     32 H20          5.1290    -2.2360     1.1670 hn         1 4P7       0.346000
     33 H22          3.1030     0.1330    -1.6620 ha         1 4P7       0.135000
@<TRIPOS>BOND
     1     1     2 ar  
     2     1     4 ar  
     3     1    19 1   
     4     2     8 ar  
     5     2    20 1   
     6     3     6 2   
     7     3     9 1   
     8     3    33 1   
     9     4    16 ar  
    10     4    21 1   
    11     5     8 ar  
    12     5    16 ar  
    13     5    22 1   
    14     6    18 1   
    15     6    23 1   
    16     7     9 2   
    17     7    18 1   
    18     7    24 1   
    19     8    10 1   
    20     9    12 1   
    21    10    11 1   
    22    10    17 2   
    23    11    12 2   
    24    11    13 1   
    25    12    25 1   
    26    13    14 1   
    27    13    26 1   
    28    13    27 1   
    29    14    15 1   
    30    14    28 1   
    31    14    29 1   
    32    15    17 1   
    33    15    30 1   
    34    15    31 1   
    35    18    32 1   
@<TRIPOS>SUBSTRUCTURE
     1 4P7         1 TEMP              0 ****  ****    0 ROOT
