@<TRIPOS>MOLECULE
4P7
   33    35     1     0     0
SMALL
abcg2


@<TRIPOS>ATOM
      1 C17         -2.7790    -2.2170    -0.9370 ca         1 4P7      -0.172000
      2 C16         -1.8640    -1.1790    -1.0100 ca         1 4P7      -0.059000
      3 C4           3.5220    -0.1940    -0.4280 cc         1 4P7      -0.153000
      4 C18         -3.7180    -2.2020     0.0830 ca         1 4P7       0.337900
      5 C14         -2.9160    -0.2390     0.9050 ca         1 4P7       0.365900
      6 C3           4.5710    -1.0280    -0.1510 cd         1 4P7      -0.208000
      7 C1           2.7630    -1.9550     0.7490 cd         1 4P7      -0.177000
      8 C15         -1.9250    -0.1560    -0.0690 ca         1 4P7      -0.177900
      9 C5           2.3500    -0.7740     0.1520 cc         1 4P7      -0.142800
     10 C12         -1.0310     1.0340    -0.1150 cf         1 4P7       0.516200
     11 C11          0.4310     0.8480    -0.1240 cf         1 4P7      -0.229800
     12 C6           0.9650    -0.3590     0.1550 ce         1 4P7      -0.077200
     13 C10          1.2290     2.0900    -0.3990 c6         1 4P7      -0.034200
     14 C9           0.5540     3.2870     0.2590 c6         1 4P7      -0.104400
     15 C8          -0.8870     3.3910    -0.2030 c6         1 4P7       0.102800
     16 N13         -3.7880    -1.2340     0.9900 nb         1 4P7      -0.671000
     17 N7          -1.6370     2.1560    -0.1660 n2         1 4P7      -0.582900
     18 N2           4.0930    -2.0830     0.5670 na         1 4P7      -0.100000
     19 H32         -2.7670    -3.0240    -1.6560 ha         1 4P7       0.123000
     20 H31         -1.1220    -1.1600    -1.7980 ha         1 4P7       0.124000
     21 H33         -4.4440    -3.0030     0.1700 h4         1 4P7       0.017100
     22 H30         -2.9950     0.5410     1.6550 h4         1 4P7       0.028100
     23 H21          5.6130    -0.9560    -0.4150 h4         1 4P7       0.147000
     24 H19          2.1930    -2.6940     1.2890 h4         1 4P7       0.148000
     25 H23          0.2820    -1.1550     0.4340 ha         1 4P7       0.173000
     26 H28          2.2440     1.9860    -0.0190 hc         1 4P7       0.052700
     27 H29          1.3120     2.2600    -1.4780 hc         1 4P7       0.052700
     28 H27          0.5880     3.1680     1.3460 hc         1 4P7       0.049200
     29 H26          1.0880     4.2080     0.0220 hc         1 4P7       0.049200
     30 H24         -1.4300     4.1270     0.3950 h1         1 4P7       0.061200
     31 H25         -0.9260     3.7670    -1.2320 h1         1 4P7       0.061200
     32 H20          4.6510    -2.8470     0.9100 hn         1 4P7       0.346000
     33 H22          3.5880     0.7080    -1.0130 ha         1 4P7       0.135000
@<TRIPOS>BOND
     1     1     2 ar  
     2     1     4 ar  
     3     1    19 1   
     4     2     8 ar  
     5     2    20 1   
     6     3     6 2   
     7     3     9 1   
     8     3    33 1   
     9     4    16 ar  
    10     4    21 1   
    11     5     8 ar  
    12     5    16 ar  
    13     5    22 1   
    14     6    18 1   
    15     6    23 1   
    16     7     9 2   
    17     7    18 1   
    18     7    24 1   
    19     8    10 1   
    20     9    12 1   
    21    10    11 1   
    22    10    17 2   
    23    11    12 2   
    24    11    13 1   
    25    12    25 1   
    26    13    14 1   
    27    13    26 1   
    28    13    27 1   
    29    14    15 1   
    30    14    28 1   
    31    14    29 1   
    32    15    17 1   
    33    15    30 1   
    34    15    31 1   
    35    18    32 1   
@<TRIPOS>SUBSTRUCTURE
     1 4P7         1 TEMP              0 ****  ****    0 ROOT
