@<TRIPOS>MOLECULE
4P8
   30    31     1     0     0
SMALL
No Charge or Current Charge


@<TRIPOS>ATOM
      1 OAP         -3.4230     3.0880     1.0150 o          1 4P8      -0.485100
      2 CAO         -2.3270     2.8630     0.5120 c          1 4P8       0.591500
      3 CAM         -1.8410     1.5230     0.0160 ca         1 4P8      -0.265600
      4 CAK         -0.5400     1.4810    -0.5190 ca         1 4P8       0.023000
      5 CAN         -2.6140     0.3390     0.0670 ca         1 4P8       0.292100
      6 OAQ         -3.8730     0.3850     0.5840 oh         1 4P8      -0.487100
      7 CAL         -2.0770    -0.8820    -0.4230 ca         1 4P8      -0.319200
      8 NAR         -2.8430    -2.1720    -0.4030 no         1 4P8       0.707200
      9 OAT         -3.9410    -2.1990     0.1670 o          1 4P8      -0.407500
     10 OAS         -2.3440    -3.1570    -0.9580 o          1 4P8      -0.407500
     11 CAJ         -0.7660    -0.8920    -0.9560 ca         1 4P8       0.031000
     12 CAI          0.0020     0.2820    -1.0030 ca         1 4P8      -0.144300
     13 CAH          1.4180     0.2610    -1.5720 c3         1 4P8       0.026200
     14 CAB          2.4620     0.6180    -0.5150 ca         1 4P8      -0.081300
     15 CAA          2.8800    -0.3180     0.4610 ca         1 4P8       0.128000
     16 ClG          2.2280    -1.9560     0.5050 cl         1 4P8      -0.202000
     17 CAF          3.8370     0.0450     1.4240 ca         1 4P8      -0.099000
     18 CAE          4.3860     1.3380     1.4270 ca         1 4P8      -0.097000
     19 CAD          3.9760     2.2720     0.4630 ca         1 4P8      -0.106000
     20 CAC          3.0190     1.9140    -0.5030 ca         1 4P8      -0.104000
     21 H1          -1.5990     3.6960     0.3940 h4         1 4P8      -0.014800
     22 H2           0.0600     2.3880    -0.5610 ha         1 4P8       0.126000
     23 H3          -4.2250    -0.5350     0.5750 ho         1 4P8       0.523000
     24 H4          -0.3280    -1.8150    -1.3350 ha         1 4P8       0.153000
     25 H5           1.6490    -0.7170    -2.0110 hc         1 4P8       0.065200
     26 H6           1.4770     0.9640    -2.4120 hc         1 4P8       0.065200
     27 H7           4.1540    -0.6800     2.1710 ha         1 4P8       0.133000
     28 H8           5.1260     1.6150     2.1750 ha         1 4P8       0.122000
     29 H9           4.3990     3.2750     0.4630 ha         1 4P8       0.121000
     30 H10          2.7110     2.6490    -1.2430 ha         1 4P8       0.114000
@<TRIPOS>BOND
     1     1     2 2   
     2     2     3 1   
     3     2    21 1   
     4     3     4 ar  
     5     3     5 ar  
     6     4    12 ar  
     7     4    22 1   
     8     5     6 1   
     9     5     7 ar  
    10     6    23 1   
    11     7     8 1   
    12     7    11 ar  
    13     8     9 1   
    14     8    10 1   
    15    11    12 ar  
    16    11    24 1   
    17    12    13 1   
    18    13    14 1   
    19    13    25 1   
    20    13    26 1   
    21    14    15 ar  
    22    14    20 ar  
    23    15    16 1   
    24    15    17 ar  
    25    17    18 ar  
    26    17    27 1   
    27    18    19 ar  
    28    18    28 1   
    29    19    20 ar  
    30    19    29 1   
    31    20    30 1   
@<TRIPOS>SUBSTRUCTURE
     1 4P8         1 TEMP              0 ****  ****    0 ROOT
