@<TRIPOS>MOLECULE
4P8
   30    31     1     0     0
SMALL
bcc


@<TRIPOS>ATOM
      1 OAP         -3.3200     3.0140     1.1070 o          1 4P8      -0.485100
      2 CAO         -2.2540     2.7590     0.6030 c          1 4P8       0.591500
      3 CAM         -1.8150     1.4550     0.0800 ca         1 4P8      -0.265600
      4 CAK         -0.5320     1.4000    -0.4440 ca         1 4P8       0.005000
      5 CAN         -2.6250     0.3000     0.0870 ca         1 4P8       0.292100
      6 OAQ         -3.8350     0.3810     0.5940 oh         1 4P8      -0.448100
      7 CAL         -2.0650    -0.8720    -0.4600 ca         1 4P8      -0.319200
      8 NAR         -2.8180    -2.0950    -0.4970 no         1 4P8       0.327200
      9 OAT         -3.9550    -2.0900    -0.0410 o          1 4P8      -0.217500
     10 OAS         -2.3180    -3.0810    -0.9720 o          1 4P8      -0.217500
     11 CAJ         -0.7700    -0.8920    -0.9780 ca         1 4P8       0.013000
     12 CAI          0.0160     0.2390    -0.9800 ca         1 4P8      -0.144300
     13 CAH          1.4130     0.2350    -1.5470 c3         1 4P8       0.026200
     14 CAB          2.4470     0.6210    -0.5240 ca         1 4P8      -0.081300
     15 CAA          2.8310    -0.2340     0.5070 ca         1 4P8       0.036400
     16 CLG          2.1360    -1.8220     0.6100 cl         1 4P8      -0.110400
     17 CAF          3.7680     0.1360     1.4590 ca         1 4P8      -0.117000
     18 CAE          4.3440     1.3960     1.3940 ca         1 4P8      -0.115000
     19 CAD          3.9840     2.2690     0.3780 ca         1 4P8      -0.124000
     20 CAC          3.0470     1.8770    -0.5670 ca         1 4P8      -0.122000
     21 H1          -1.4820     3.5410     0.4910 h4         1 4P8      -0.014800
     22 H2           0.0610     2.3090    -0.4310 ha         1 4P8       0.144000
     23 H3          -4.2600    -0.4990     0.5280 ho         1 4P8       0.484000
     24 H4          -0.3800    -1.8140    -1.3870 ha         1 4P8       0.171000
     25 H5           1.6370    -0.7470    -1.9660 hc         1 4P8       0.065200
     26 H6           1.4630     0.9440    -2.3770 hc         1 4P8       0.065200
     27 H7           4.0480    -0.5540     2.2430 ha         1 4P8       0.151000
     28 H8           5.0740     1.6880     2.1380 ha         1 4P8       0.140000
     29 H9           4.4310     3.2520     0.3180 ha         1 4P8       0.139000
     30 H10          2.7700     2.5590    -1.3620 ha         1 4P8       0.132000
@<TRIPOS>BOND
     1     1     2 2   
     2     2     3 1   
     3     2    21 1   
     4     3     4 ar  
     5     3     5 ar  
     6     4    12 ar  
     7     4    22 1   
     8     5     6 1   
     9     5     7 ar  
    10     6    23 1   
    11     7     8 1   
    12     7    11 ar  
    13     8     9 1   
    14     8    10 1   
    15    11    12 ar  
    16    11    24 1   
    17    12    13 1   
    18    13    14 1   
    19    13    25 1   
    20    13    26 1   
    21    14    15 ar  
    22    14    20 ar  
    23    15    16 1   
    24    15    17 ar  
    25    17    18 ar  
    26    17    27 1   
    27    18    19 ar  
    28    18    28 1   
    29    19    20 ar  
    30    19    29 1   
    31    20    30 1   
@<TRIPOS>SUBSTRUCTURE
     1 4P8         1 TEMP              0 ****  ****    0 ROOT
