@<TRIPOS>MOLECULE
4P9
   30    31     1     0     0
SMALL
No Charge or Current Charge


@<TRIPOS>ATOM
      1 CAN         -2.3880     0.4670     0.0120 ca         1 4P9      -0.162000
      2 CAP         -3.6530     1.0850     0.0310 ca         1 4P9      -0.062500
      3 CAR         -4.8170     0.3000     0.0540 ca         1 4P9       0.078000
      4 ClS         -6.3970     1.0700     0.0780 cl         1 4P9      -0.204000
      5 CAQ         -4.7190    -1.1010     0.0580 ca         1 4P9      -0.062500
      6 CAO         -3.4530    -1.7170     0.0390 ca         1 4P9      -0.162000
      7 CAM         -2.2800    -0.9400     0.0150 ca         1 4P9       0.340000
      8 NAL         -1.0300    -1.5890    -0.0030 nu         1 4P9      -0.655300
      9 NAK          0.1870    -0.9540    -0.0270 n2         1 4P9      -0.451400
     10 CAJ          1.3030    -1.6330    -0.0430 ce         1 4P9       0.406800
     11 CAB          2.6470    -0.9680    -0.0680 ca         1 4P9      -0.239900
     12 CAC          3.7920    -1.7960    -0.0850 ca         1 4P9      -0.045000
     13 CAD          5.0820    -1.2390    -0.1090 ca         1 4P9      -0.165000
     14 CAE          5.2440     0.1520    -0.1160 ca         1 4P9       0.172100
     15 OAG          6.4910     0.7000    -0.1380 oh         1 4P9      -0.528100
     16 CAF          4.1200     0.9960    -0.0990 ca         1 4P9      -0.010900
     17 OAH          4.2750     2.3610    -0.1060 oh         1 4P9      -0.559100
     18 CAA          2.8250     0.4370    -0.0750 ca         1 4P9       0.149100
     19 OAI          1.7490     1.2770    -0.0600 oh         1 4P9      -0.564100
     20 H1          -1.4970     1.0860    -0.0060 ha         1 4P9       0.122500
     21 H2          -3.7300     2.1700     0.0280 ha         1 4P9       0.129000
     22 H3          -5.6210    -1.7080     0.0760 ha         1 4P9       0.129000
     23 H4          -3.3880    -2.8010     0.0420 ha         1 4P9       0.122500
     24 H5          -1.1060    -2.6160     0.0020 hn         1 4P9       0.488000
     25 H7           1.2990    -2.7260    -0.0390 h4         1 4P9      -0.008200
     26 H9           3.6830    -2.8790    -0.0800 ha         1 4P9       0.115000
     27 H10          5.9540    -1.8870    -0.1210 ha         1 4P9       0.136000
     28 H11          6.3510     1.6740    -0.1390 ho         1 4P9       0.487000
     29 H12          3.3680     2.7490    -0.0920 ho         1 4P9       0.489000
     30 H13          0.9500     0.6890    -0.0440 ho         1 4P9       0.516000
@<TRIPOS>BOND
     1     1     2 ar  
     2     1     7 ar  
     3     1    20 1   
     4     2     3 ar  
     5     2    21 1   
     6     3     4 1   
     7     3     5 ar  
     8     5     6 ar  
     9     5    22 1   
    10     6     7 ar  
    11     6    23 1   
    12     7     8 1   
    13     8     9 1   
    14     8    24 1   
    15     9    10 2   
    16    10    11 1   
    17    10    25 1   
    18    11    12 ar  
    19    11    18 ar  
    20    12    13 ar  
    21    12    26 1   
    22    13    14 ar  
    23    13    27 1   
    24    14    15 1   
    25    14    16 ar  
    26    15    28 1   
    27    16    17 1   
    28    16    18 ar  
    29    17    29 1   
    30    18    19 1   
    31    19    30 1   
@<TRIPOS>SUBSTRUCTURE
     1 4P9         1 TEMP              0 ****  ****    0 ROOT
