@<TRIPOS>MOLECULE
4P9
   30    31     1     0     0
SMALL
bcc


@<TRIPOS>ATOM
      1 CAN         -2.2790     0.4520     0.0670 ca         1 4P9      -0.180000
      2 CAP         -3.5190     1.0700     0.1080 ca         1 4P9      -0.080500
      3 CAR         -4.6770     0.3110     0.0860 ca         1 4P9      -0.013600
      4 CLS         -6.2260     1.0940     0.1390 cl         1 4P9      -0.112400
      5 CAQ         -4.6040    -1.0730     0.0230 ca         1 4P9      -0.080500
      6 CAO         -3.3690    -1.6920    -0.0190 ca         1 4P9      -0.180000
      7 CAM         -2.1880    -0.9410     0.0010 ca         1 4P9       0.201600
      8 NAL         -0.9890    -1.6080    -0.0430 nu         1 4P9      -0.461700
      9 NAK          0.1800    -0.9670    -0.0450 n2         1 4P9      -0.451400
     10 CAJ          1.2660    -1.6450    -0.0440 ce         1 4P9       0.406800
     11 CAB          2.5650    -1.0020    -0.0570 ca         1 4P9      -0.239900
     12 CAC          3.7210    -1.7860    -0.0380 ca         1 4P9      -0.063000
     13 CAD          4.9790    -1.2170    -0.0490 ca         1 4P9      -0.183000
     14 CAE          5.1090     0.1700    -0.0830 ca         1 4P9       0.172100
     15 OAG          6.3430     0.7070    -0.0990 oh         1 4P9      -0.489100
     16 CAF          3.9710     0.9740    -0.0950 ca         1 4P9      -0.010900
     17 OAH          4.1570     2.3180    -0.1060 oh         1 4P9      -0.520100
     18 CAA          2.7050     0.3960    -0.0800 ca         1 4P9       0.149100
     19 OAI          1.6590     1.2370    -0.1000 oh         1 4P9      -0.525100
     20 H1          -1.3930     1.0690     0.0920 ha         1 4P9       0.140500
     21 H2          -3.5710     2.1490     0.1590 ha         1 4P9       0.147000
     22 H3          -5.5030    -1.6740     0.0050 ha         1 4P9       0.147000
     23 H4          -3.3210    -2.7730    -0.0700 ha         1 4P9       0.140500
     24 H5          -0.9940    -2.6200    -0.0470 hn         1 4P9       0.432800
     25 H7           1.2540    -2.7360    -0.0360 h4         1 4P9      -0.008200
     26 H9           3.6240    -2.8640    -0.0170 ha         1 4P9       0.133000
     27 H10          5.8660    -1.8360    -0.0370 ha         1 4P9       0.154000
     28 H11          6.2930     1.6690    -0.1550 ho         1 4P9       0.448000
     29 H12          3.3480     2.7730    -0.3690 ho         1 4P9       0.450000
     30 H13          0.8360     0.7030    -0.1080 ho         1 4P9       0.477000
@<TRIPOS>BOND
     1     1     2 ar  
     2     1     7 ar  
     3     1    20 1   
     4     2     3 ar  
     5     2    21 1   
     6     3     4 1   
     7     3     5 ar  
     8     5     6 ar  
     9     5    22 1   
    10     6     7 ar  
    11     6    23 1   
    12     7     8 1   
    13     8     9 1   
    14     8    24 1   
    15     9    10 2   
    16    10    11 1   
    17    10    25 1   
    18    11    12 ar  
    19    11    18 ar  
    20    12    13 ar  
    21    12    26 1   
    22    13    14 ar  
    23    13    27 1   
    24    14    15 1   
    25    14    16 ar  
    26    15    28 1   
    27    16    17 1   
    28    16    18 ar  
    29    17    29 1   
    30    18    19 1   
    31    19    30 1   
@<TRIPOS>SUBSTRUCTURE
     1 4P9         1 TEMP              0 ****  ****    0 ROOT
