@<TRIPOS>MOLECULE
4PA
   17    16     1     0     0
SMALL
abcg2


@<TRIPOS>ATOM
      1 CAI         -0.1890     0.0030    -1.5200 c          1 4PA       0.595100
      2 OAD         -1.3910    -0.0190    -1.6260 o          1 4PA      -0.490000
      3 CAC          0.7780     0.0090    -2.6670 c3         1 4PA      -0.156100
      4 OAH          0.4410     0.0240    -0.3520 os         1 4PA      -0.455100
      5 CAF         -0.3480     0.0150     0.8440 c3         1 4PA       0.165600
      6 CAE          0.5920     0.0270     2.0300 c3         1 4PA      -0.083400
      7 CAA         -0.1900     0.0110     3.3370 c3         1 4PA      -0.091100
      8 HAC1         0.2460     0.0100    -3.6140 hc         1 4PA       0.069033
      9 HAC2         1.4230     0.8870    -2.6190 hc         1 4PA       0.069033
     10 HAC3         1.4230    -0.8700    -2.6230 hc         1 4PA       0.069033
     11 HAF1        -0.9830    -0.8750     0.8650 h1         1 4PA       0.048200
     12 HAF2        -1.0020     0.8920     0.8640 h1         1 4PA       0.048200
     13 HAE1         1.2270     0.9150     1.9880 hc         1 4PA       0.051700
     14 HAE2         1.2530    -0.8420     1.9830 hc         1 4PA       0.051700
     15 HAA1         0.4810     0.0220     4.1950 hc         1 4PA       0.036367
     16 HAA2        -0.8450     0.8810     3.4190 hc         1 4PA       0.036367
     17 HAA3        -0.8130    -0.8810     3.4160 hc         1 4PA       0.036367
@<TRIPOS>BOND
     1     1     2 2   
     2     1     3 1   
     3     1     4 1   
     4     3     8 1   
     5     3     9 1   
     6     3    10 1   
     7     4     5 1   
     8     5     6 1   
     9     5    11 1   
    10     5    12 1   
    11     6     7 1   
    12     6    13 1   
    13     6    14 1   
    14     7    15 1   
    15     7    16 1   
    16     7    17 1   
@<TRIPOS>SUBSTRUCTURE
     1 4PA         1 TEMP              0 ****  ****    0 ROOT
