@<TRIPOS>MOLECULE
4PA
   17    16     1     0     0
SMALL
No Charge or Current Charge


@<TRIPOS>ATOM
      1 CAI         -0.2120     0.0040    -1.5680 c          1 4PA       0.595100
      2 OAD         -1.4260    -0.0100    -1.7150 o          1 4PA      -0.490000
      3 CAC          0.7800     0.0120    -2.7230 c3         1 4PA      -0.156100
      4 OAH          0.4260     0.0140    -0.3560 os         1 4PA      -0.455100
      5 CAF         -0.3840     0.0070     0.8330 c3         1 4PA       0.165600
      6 CAE          0.5690     0.0210     2.0430 c3         1 4PA      -0.083400
      7 CAA         -0.1730     0.0160     3.3950 c3         1 4PA      -0.091100
      8 HAC1         0.2880     0.0040    -3.7020 hc         1 4PA       0.069033
      9 HAC2         1.4480     0.8720    -2.6080 hc         1 4PA       0.069033
     10 HAC3         1.4670    -0.8330    -2.6040 hc         1 4PA       0.069033
     11 HAF1        -1.0140    -0.8910     0.8710 h1         1 4PA       0.048200
     12 HAF2        -1.0340     0.8920     0.8670 h1         1 4PA       0.048200
     13 HAE1         1.2080     0.9110     1.9890 hc         1 4PA       0.051700
     14 HAE2         1.2280    -0.8540     1.9940 hc         1 4PA       0.051700
     15 HAA1         0.5440     0.0260     4.2250 hc         1 4PA       0.036367
     16 HAA2        -0.8170     0.8990     3.4870 hc         1 4PA       0.036367
     17 HAA3        -0.7970    -0.8800     3.4920 hc         1 4PA       0.036367
@<TRIPOS>BOND
     1     1     2 2   
     2     1     3 1   
     3     1     4 1   
     4     3     8 1   
     5     3     9 1   
     6     3    10 1   
     7     4     5 1   
     8     5     6 1   
     9     5    11 1   
    10     5    12 1   
    11     6     7 1   
    12     6    13 1   
    13     6    14 1   
    14     7    15 1   
    15     7    16 1   
    16     7    17 1   
@<TRIPOS>SUBSTRUCTURE
     1 4PA         1 TEMP              0 ****  ****    0 ROOT
