@<TRIPOS>MOLECULE
4PF
   34    33     1     0     0
SMALL
No Charge or Current Charge


@<TRIPOS>ATOM
      1 C1          -4.6030     1.9830    -0.3980 c3         1 4PF       0.145900
      2 O1          -3.8140     0.7860    -0.5010 os         1 4PF      -0.443000
      3 C2          -3.3790     0.2470     0.7650 c3         1 4PF       0.158600
      4 C3          -2.5370    -1.0270     0.5110 c3         1 4PF       0.162600
      5 O2          -1.2600    -0.6410    -0.0460 os         1 4PF      -0.440000
      6 C4          -0.3890    -1.7200    -0.4630 c3         1 4PF       0.178300
      7 C5           0.0650    -2.5370     0.7730 c3         1 4PF      -0.119100
      8 C6           0.7950    -1.1040    -1.2630 c3         1 4PF       0.164600
      9 O3           1.6410    -0.3350    -0.3830 os         1 4PF      -0.425000
     10 C7           2.7580     0.3020    -1.0350 c3         1 4PF       0.167600
     11 C8           3.5990     1.1080     0.0080 c3         1 4PF       0.168500
     12 C9           2.7860     2.2200     0.7040 c3         1 4PF      -0.084100
     13 N1           4.2600     0.2480     1.0210 n8         1 4PF      -0.983200
     14 H1          -5.5160     1.7990     0.1830 h1         1 4PF       0.026700
     15 H2          -4.0340     2.7840     0.0920 h1         1 4PF       0.026700
     16 H3          -4.8970     2.3330    -1.3950 h1         1 4PF       0.026700
     17 H4          -2.7780     0.9790     1.3200 h1         1 4PF       0.028700
     18 H5          -4.2470    -0.0200     1.3820 h1         1 4PF       0.028700
     19 H6          -2.4020    -1.5460     1.4680 h1         1 4PF       0.026200
     20 H7          -3.0800    -1.6960    -0.1690 h1         1 4PF       0.026200
     21 H8          -0.9280    -2.3920    -1.1440 h1         1 4PF       0.028700
     22 H9           0.4540    -1.8790     1.5590 hc         1 4PF       0.044367
     23 H10         -0.7630    -3.1250     1.1850 hc         1 4PF       0.044367
     24 H11          0.8580    -3.2400     0.4920 hc         1 4PF       0.044367
     25 H12          1.3690    -1.9170    -1.7260 h1         1 4PF       0.026200
     26 H13          0.3960    -0.4740    -2.0680 h1         1 4PF       0.026200
     27 H14          3.3990    -0.4470    -1.5190 h1         1 4PF       0.015200
     28 H15          2.4010     0.9900    -1.8130 h1         1 4PF       0.015200
     29 H16          4.4080     1.5970    -0.5510 h1         1 4PF       0.009700
     30 H17          3.4280     2.8210     1.3600 hc         1 4PF       0.042367
     31 H18          2.3420     2.8920    -0.0400 hc         1 4PF       0.042367
     32 H19          1.9750     1.7980     1.3100 hc         1 4PF       0.042367
     33 H20          4.8250    -0.4600     0.5380 hn         1 4PF       0.388500
     34 H21          4.9550     0.8060     1.5290 hn         1 4PF       0.388500
@<TRIPOS>BOND
     1     1     2 1   
     2     1    14 1   
     3     1    15 1   
     4     1    16 1   
     5     2     3 1   
     6     3     4 1   
     7     3    17 1   
     8     3    18 1   
     9     4     5 1   
    10     4    19 1   
    11     4    20 1   
    12     5     6 1   
    13     6     7 1   
    14     6     8 1   
    15     6    21 1   
    16     7    22 1   
    17     7    23 1   
    18     7    24 1   
    19     8     9 1   
    20     8    25 1   
    21     8    26 1   
    22     9    10 1   
    23    10    11 1   
    24    10    27 1   
    25    10    28 1   
    26    11    12 1   
    27    11    13 1   
    28    11    29 1   
    29    12    30 1   
    30    12    31 1   
    31    12    32 1   
    32    13    33 1   
    33    13    34 1   
@<TRIPOS>SUBSTRUCTURE
     1 4PF         1 TEMP              0 ****  ****    0 ROOT
