@<TRIPOS>MOLECULE
4PF
   34    33     1     0     0
SMALL
abcg2


@<TRIPOS>ATOM
      1 C1          -4.2110     2.1070    -0.3640 c3         1 4PF       0.145900
      2 O1          -3.4810     0.9220    -0.5440 os         1 4PF      -0.443000
      3 C2          -3.3190     0.2020     0.6510 c3         1 4PF       0.158600
      4 C3          -2.5010    -1.0390     0.3980 c3         1 4PF       0.162600
      5 O2          -1.1960    -0.6720     0.0300 os         1 4PF      -0.440000
      6 C4          -0.3590    -1.7510    -0.3330 c3         1 4PF       0.178300
      7 C5           0.0980    -2.5620     0.8740 c3         1 4PF      -0.119100
      8 C6           0.8010    -1.1810    -1.1240 c3         1 4PF       0.164600
      9 O3           1.6080    -0.3890    -0.2970 os         1 4PF      -0.425000
     10 C7           2.5890     0.3170    -1.0070 c3         1 4PF       0.167600
     11 C8           3.4230     1.1770    -0.0720 c3         1 4PF       0.168500
     12 C9           2.5630     2.1140     0.7640 c3         1 4PF      -0.084100
     13 N1           4.2320     0.3380     0.8050 n8         1 4PF      -0.983200
     14 H1          -5.2250     1.9170     0.0080 h1         1 4PF       0.026700
     15 H2          -3.7200     2.7920     0.3380 h1         1 4PF       0.026700
     16 H3          -4.2900     2.6050    -1.3300 h1         1 4PF       0.026700
     17 H4          -2.8310     0.8190     1.4200 h1         1 4PF       0.028700
     18 H5          -4.2900    -0.1080     1.0620 h1         1 4PF       0.028700
     19 H6          -2.5170    -1.6410     1.3160 h1         1 4PF       0.026200
     20 H7          -2.9750    -1.6470    -0.3870 h1         1 4PF       0.026200
     21 H8          -0.8970    -2.4220    -1.0200 h1         1 4PF       0.028700
     22 H9           0.6430    -1.9420     1.5850 hc         1 4PF       0.044367
     23 H10         -0.7460    -3.0160     1.3930 hc         1 4PF       0.044367
     24 H11          0.7540    -3.3730     0.5560 hc         1 4PF       0.044367
     25 H12          1.3730    -2.0160    -1.5570 h1         1 4PF       0.026200
     26 H13          0.4080    -0.5970    -1.9700 h1         1 4PF       0.026200
     27 H14          3.2510    -0.3730    -1.5550 h1         1 4PF       0.015200
     28 H15          2.1260     0.9680    -1.7640 h1         1 4PF       0.015200
     29 H16          4.0410     1.7990    -0.7390 h1         1 4PF       0.009700
     30 H17          3.1890     2.7680     1.3740 hc         1 4PF       0.042367
     31 H18          1.9460     2.7500     0.1290 hc         1 4PF       0.042367
     32 H19          1.9060     1.5560     1.4310 hc         1 4PF       0.042367
     33 H20          4.8650    -0.2200     0.2450 hn         1 4PF       0.388500
     34 H21          4.8270     0.9310     1.3710 hn         1 4PF       0.388500
@<TRIPOS>BOND
     1     1     2 1   
     2     1    14 1   
     3     1    15 1   
     4     1    16 1   
     5     2     3 1   
     6     3     4 1   
     7     3    17 1   
     8     3    18 1   
     9     4     5 1   
    10     4    19 1   
    11     4    20 1   
    12     5     6 1   
    13     6     7 1   
    14     6     8 1   
    15     6    21 1   
    16     7    22 1   
    17     7    23 1   
    18     7    24 1   
    19     8     9 1   
    20     8    25 1   
    21     8    26 1   
    22     9    10 1   
    23    10    11 1   
    24    10    27 1   
    25    10    28 1   
    26    11    12 1   
    27    11    13 1   
    28    11    29 1   
    29    12    30 1   
    30    12    31 1   
    31    12    32 1   
    32    13    33 1   
    33    13    34 1   
@<TRIPOS>SUBSTRUCTURE
     1 4PF         1 TEMP              0 ****  ****    0 ROOT
