@<TRIPOS>MOLECULE
4PG
   34    35     1     0     0
SMALL
bcc


@<TRIPOS>ATOM
      1 C1          -5.4970     0.0370     0.2550 c2         1 4PG       0.820100
      2 C2          -3.0540    -0.2480    -0.2410 ca         1 4PG       0.165600
      3 C3          -2.4450     0.4550     0.7990 ca         1 4PG      -0.169500
      4 C7          -2.2760    -0.6190    -1.3390 ca         1 4PG      -0.169500
      5 C9           2.0220    -0.3330     0.1210 c          1 4PG       0.578700
      6 C10          3.4960    -0.1150     0.1040 ca         1 4PG      -0.176600
      7 C11          4.0660     1.0710    -0.3610 ca         1 4PG      -0.083500
      8 C12          5.4430     1.2370    -0.3580 ca         1 4PG      -0.142000
      9 C13          6.2650     0.2210     0.1060 ca         1 4PG      -0.101000
     10 C14          5.7070    -0.9660     0.5690 ca         1 4PG      -0.142000
     11 C15          4.3330    -1.1310     0.5700 ca         1 4PG      -0.083500
     12 N1          -4.3910    -0.6520    -0.2010 nu         1 4PG      -0.794600
     13 N2          -5.2830     1.3350     0.6330 nv         1 4PG      -0.914800
     14 N3          -6.6630    -0.4810     0.3610 n2         1 4PG      -0.896100
     15 C4          -1.1020     0.7930     0.7180 ca         1 4PG      -0.087000
     16 C5          -0.3220     0.4270    -0.3720 ca         1 4PG      -0.096300
     17 C6          -0.9310    -0.2940    -1.3940 ca         1 4PG      -0.087000
     18 O1           1.5530    -1.3590     0.5620 o          1 4PG      -0.509100
     19 H3          -3.0090     0.7340     1.6780 ha         1 4PG       0.141500
     20 H7          -2.7310    -1.1620    -2.1580 ha         1 4PG       0.141500
     21 H81          1.3400     1.6840     0.1290 hc         1 4PG       0.067700
     22 H82          1.4460     0.9740    -1.4580 hc         1 4PG       0.067700
     23 H11          3.4480     1.8780    -0.7290 ha         1 4PG       0.141000
     24 H12          5.8720     2.1620    -0.7200 ha         1 4PG       0.135500
     25 H13          7.3400     0.3510     0.1070 ha         1 4PG       0.133000
     26 H14          6.3460    -1.7610     0.9300 ha         1 4PG       0.135500
     27 H15          3.9050    -2.0560     0.9330 ha         1 4PG       0.141000
     28 HN1         -4.6060    -1.4850    -0.7270 hn         1 4PG       0.435800
     29 HN21        -6.1350     1.8460     0.8020 hn         1 4PG       0.413800
     30 HN22        -4.6020     1.8670     0.1140 hn         1 4PG       0.413800
     31 HN3         -6.6440    -1.4740     0.1560 hn         1 4PG       0.385400
     32 H4          -0.6530     1.3420     1.5370 ha         1 4PG       0.130500
     33 H6          -0.3540    -0.5990    -2.2590 ha         1 4PG       0.130500
     34 C8           1.1350     0.7660    -0.4300 c3         1 4PG      -0.125100
@<TRIPOS>BOND
     1     1    12 1   
     2     1    13 1   
     3     1    14 2   
     4     2     3 ar  
     5     2     4 ar  
     6     2    12 1   
     7     3    15 ar  
     8     3    19 1   
     9     4    17 ar  
    10     4    20 1   
    11     5     6 1   
    12     5    18 2   
    13     5    34 1   
    14     6     7 ar  
    15     6    11 ar  
    16     7     8 ar  
    17     7    23 1   
    18     8     9 ar  
    19     8    24 1   
    20     9    10 ar  
    21     9    25 1   
    22    10    11 ar  
    23    10    26 1   
    24    11    27 1   
    25    12    28 1   
    26    13    29 1   
    27    13    30 1   
    28    14    31 1   
    29    15    16 ar  
    30    15    32 1   
    31    16    17 ar  
    32    16    34 1   
    33    17    33 1   
    34    21    34 1   
    35    22    34 1   
@<TRIPOS>SUBSTRUCTURE
     1 4PG         1 TEMP              0 ****  ****    0 ROOT
