@<TRIPOS>MOLECULE
4PG
   34    35     1     0     0
SMALL
No Charge or Current Charge


@<TRIPOS>ATOM
      1 C1          -4.4760    -0.0900     1.2380 c2         1 4PG       0.820100
      2 C2          -2.7300     0.4750    -0.3970 ca         1 4PG       0.304000
      3 C3          -1.6850     0.9730     0.3990 ca         1 4PG      -0.151500
      4 C7          -2.4610     0.0660    -1.7130 ca         1 4PG      -0.151500
      5 C9           2.1460    -0.4870    -1.4870 c          1 4PG       0.578700
      6 C10          3.1510    -0.3130    -0.3680 ca         1 4PG      -0.176600
      7 C11          3.8930     0.8800    -0.2010 ca         1 4PG      -0.065500
      8 C12          4.8180     1.0020     0.8520 ca         1 4PG      -0.124000
      9 C13          5.0180    -0.0610     1.7450 ca         1 4PG      -0.083000
     10 C14          4.2960    -1.2540     1.5820 ca         1 4PG      -0.124000
     11 C15          3.3720    -1.3810     0.5310 ca         1 4PG      -0.065500
     12 N1          -4.0310     0.4010     0.0950 nu         1 4PG      -0.988200
     13 N2          -5.6810     0.3580     1.4620 nv         1 4PG      -1.025200
     14 N3          -3.8050    -0.8310     1.9680 n2         1 4PG      -0.896100
     15 C4          -0.3780     1.0510    -0.1100 ca         1 4PG      -0.069000
     16 C5          -0.1050     0.6350    -1.4270 ca         1 4PG      -0.096300
     17 C6          -1.1540     0.1410    -2.2270 ca         1 4PG      -0.069000
     18 O1           1.9760    -1.5910    -1.9950 o          1 4PG      -0.509100
     19 H3          -1.8870     1.3080     1.4130 ha         1 4PG       0.123500
     20 H7          -3.2610    -0.3170    -2.3400 ha         1 4PG       0.123500
     21 H81          1.7560     1.6590    -1.6420 hc         1 4PG       0.067700
     22 H82          1.2930     0.7000    -3.0700 hc         1 4PG       0.067700
     23 H11          3.7820     1.7140    -0.8900 ha         1 4PG       0.123000
     24 H12          5.3840     1.9230     0.9710 ha         1 4PG       0.117500
     25 H13          5.7340     0.0360     2.5580 ha         1 4PG       0.115000
     26 H14          4.4530    -2.0820     2.2700 ha         1 4PG       0.117500
     27 H15          2.8190    -2.3130     0.4210 ha         1 4PG       0.123000
     28 HN1         -4.7190     0.3000    -0.6390 hn         1 4PG       0.491000
     29 HN21        -6.2480    -0.2960     1.9810 hn         1 4PG       0.469000
     30 HN22        -6.1200     0.8150     0.6800 hn         1 4PG       0.469000
     31 HN3         -2.9120    -0.9430     1.4790 hn         1 4PG       0.385400
     32 H4           0.4220     1.4370     0.5190 ha         1 4PG       0.112500
     33 H6          -0.9590    -0.1860    -3.2460 ha         1 4PG       0.112500
     34 C8           1.3160     0.7150    -1.9740 c3         1 4PG      -0.125100
@<TRIPOS>BOND
     1     1    12 1   
     2     1    13 1   
     3     1    14 2   
     4     2     3 ar  
     5     2     4 ar  
     6     2    12 1   
     7     3    15 ar  
     8     3    19 1   
     9     4    17 ar  
    10     4    20 1   
    11     5     6 1   
    12     5    18 2   
    13     5    34 1   
    14     6     7 ar  
    15     6    11 ar  
    16     7     8 ar  
    17     7    23 1   
    18     8     9 ar  
    19     8    24 1   
    20     9    10 ar  
    21     9    25 1   
    22    10    11 ar  
    23    10    26 1   
    24    11    27 1   
    25    12    28 1   
    26    13    29 1   
    27    13    30 1   
    28    14    31 1   
    29    15    16 ar  
    30    15    32 1   
    31    16    17 ar  
    32    16    34 1   
    33    17    33 1   
    34    21    34 1   
    35    22    34 1   
@<TRIPOS>SUBSTRUCTURE
     1 4PG         1 TEMP              0 ****  ****    0 ROOT
