@<TRIPOS>MOLECULE
4PH
   25    25     1     0     0
SMALL
bcc


@<TRIPOS>ATOM
      1 CA          13.4460    15.2850    19.3560 c3         1 4PH       0.017500
      2 CB          12.9630    16.4400    18.4680 c3         1 4PH      -0.013100
      3 CG          12.0120    17.3780    19.1530 ca         1 4PH      -0.032300
      4 CD2         10.6490    17.3660    18.8690 ca         1 4PH      -0.110500
      5 CD1         12.4650    18.2880    20.1060 ca         1 4PH      -0.110500
      6 CE2          9.7720    18.2270    19.5150 ca         1 4PH      -0.133000
      7 CE1         11.5890    19.1480    20.7530 ca         1 4PH      -0.133000
      8 CZ          10.2240    19.1320    20.4710 ca         1 4PH      -0.103300
      9 C           12.2320    14.5280    19.9460 c          1 4PH       0.900600
     10 C33          9.2720    20.0420    21.1920 c3         1 4PH      -0.032800
     11 O           11.5820    13.8320    19.1350 o          1 4PH      -0.836300
     12 N           14.3370    14.4470    18.5560 n8         1 4PH      -0.895800
     13 OXT         11.9950    14.6780    21.1600 o          1 4PH      -0.836300
     14 HA          14.0340    15.7070    20.1770 h1         1 4PH       0.040700
     15 HB2         13.8400    16.9900    18.1160 hc         1 4PH       0.034200
     16 HB3         12.4820    16.0180    17.5810 hc         1 4PH       0.034200
     17 HD2         10.2660    16.6740    18.1280 ha         1 4PH       0.129500
     18 HD1         13.5220    18.3300    20.3440 ha         1 4PH       0.129500
     19 HE2          8.7170    18.1960    19.2650 ha         1 4PH       0.108500
     20 HE1         11.9740    19.8470    21.4870 ha         1 4PH       0.108500
     21 H33          8.8680    19.5590    22.0850 hc         1 4PH       0.026700
     22 H33A         9.7620    20.9590    21.5170 hc         1 4PH       0.026700
     23 H33B         8.4250    20.3170    20.5640 hc         1 4PH       0.026700
     24 H           14.7680    13.7560    19.1580 hn         1 4PH       0.327800
     25 H2          13.7560    13.9120    17.9190 hn         1 4PH       0.327800
@<TRIPOS>BOND
     1     1     2 1   
     2     1     9 1   
     3     1    12 1   
     4     1    14 1   
     5     2     3 1   
     6     2    15 1   
     7     2    16 1   
     8     3     4 ar  
     9     3     5 ar  
    10     4     6 ar  
    11     4    17 1   
    12     5     7 ar  
    13     5    18 1   
    14     6     8 ar  
    15     6    19 1   
    16     7     8 ar  
    17     7    20 1   
    18     8    10 1   
    19     9    11 1   
    20     9    13 1   
    21    10    21 1   
    22    10    22 1   
    23    10    23 1   
    24    12    24 1   
    25    12    25 1   
@<TRIPOS>SUBSTRUCTURE
     1 4PH         1 TEMP              0 ****  ****    0 ROOT
