@<TRIPOS>MOLECULE
4PI
   45    47     1     0     0
SMALL
No Charge or Current Charge


@<TRIPOS>ATOM
      1 C1          -6.1870    -4.5410    -3.7670 ca         1 4PI      -0.059300
      2 C2          -6.6900    -3.5780    -2.8740 ca         1 4PI      -0.120000
      3 C3          -5.8430    -2.5910    -2.3400 ca         1 4PI      -0.072500
      4 C7          -1.2420    -0.6270    -1.6790 c6         1 4PI       0.095500
      5 C8          -0.8380    -0.5430    -0.1890 c6         1 4PI      -0.099400
      6 C9          -0.2700    -1.8960     0.3110 c6         1 4PI      -0.056700
      7 C10         -1.2930    -3.0270     0.0220 c6         1 4PI      -0.099400
      8 C11         -1.7070    -3.0550    -1.4690 c6         1 4PI       0.095500
      9 C21          0.7850    -3.0980     2.3390 ca         1 4PI      -0.078300
     10 C22          0.0790    -3.9720     3.1890 ca         1 4PI      -0.108500
     11 C24          2.0090    -5.4540     3.2910 ca         1 4PI      -0.112000
     12 C27         -7.1050    -5.6050    -4.3470 c3         1 4PI      -0.050800
     13 N12         -2.2100    -1.7290    -1.9280 n          1 4PI      -0.401800
     14 C23          0.6890    -5.1470     3.6640 ca         1 4PI      -0.109000
     15 C25          2.7180    -4.5860     2.4440 ca         1 4PI      -0.109000
     16 C26          2.1070    -3.4120     1.9690 ca         1 4PI      -0.108500
     17 O32         -4.0490    -0.3520    -1.8920 o          1 4PI      -0.598100
     18 C4          -4.4730    -2.5580    -2.6790 ca         1 4PI      -0.146600
     19 C5          -3.9810    -3.5120    -3.6000 ca         1 4PI      -0.072500
     20 C6          -4.8300    -4.4970    -4.1320 ca         1 4PI      -0.120000
     21 H2          -7.7410    -3.5920    -2.5930 ha         1 4PI       0.114000
     22 H3          -6.2530    -1.8540    -1.6520 ha         1 4PI       0.122000
     23 H71         -1.6590     0.3360    -2.0040 h1         1 4PI       0.057200
     24 H72         -0.3430    -0.8050    -2.2870 h1         1 4PI       0.057200
     25 H81         -0.0930     0.2540    -0.0560 hc         1 4PI       0.051950
     26 H82         -1.7140    -0.2580     0.4100 hc         1 4PI       0.051950
     27 H9           0.6540    -2.1100    -0.2460 hc         1 4PI       0.048700
     28 H101        -2.1890    -2.8860     0.6430 hc         1 4PI       0.051950
     29 H102        -0.8730    -4.0030     0.2970 hc         1 4PI       0.051950
     30 H111        -0.8420    -3.3410    -2.0850 h1         1 4PI       0.057200
     31 H112        -2.4690    -3.8350    -1.5930 h1         1 4PI       0.057200
     32 H22         -0.9440    -3.7450     3.4810 ha         1 4PI       0.110000
     33 H24          2.4810    -6.3630     3.6580 ha         1 4PI       0.112000
     34 H271        -6.5570    -6.5290    -4.5670 hc         1 4PI       0.044367
     35 H272        -7.9130    -5.8600    -3.6500 hc         1 4PI       0.044367
     36 H273        -7.5640    -5.2580    -5.2800 hc         1 4PI       0.044367
     37 H23          0.1390    -5.8180     4.3190 ha         1 4PI       0.112000
     38 H25          3.7390    -4.8230     2.1540 ha         1 4PI       0.112000
     39 H26          2.6630    -2.7460     1.3130 ha         1 4PI       0.110000
     40 H5          -2.9410    -3.4830    -3.9210 ha         1 4PI       0.122000
     41 H6          -4.4320    -5.2230    -4.8370 ha         1 4PI       0.114000
     42 C31         -3.5890    -1.4680    -2.1080 c          1 4PI       0.615700
     43 C37          0.1240    -1.8260     1.8160 c3         1 4PI      -0.028100
     44 H371        -0.7630    -1.5920     2.4180 hc         1 4PI       0.049200
     45 H372         0.8100    -0.9850     1.9730 hc         1 4PI       0.049200
@<TRIPOS>BOND
     1     1     2 ar  
     2     1    12 1   
     3     1    20 ar  
     4     2     3 ar  
     5     2    21 1   
     6     3    18 ar  
     7     3    22 1   
     8     4     5 1   
     9     4    13 1   
    10     4    23 1   
    11     4    24 1   
    12     5     6 1   
    13     5    25 1   
    14     5    26 1   
    15     6     7 1   
    16     6    27 1   
    17     6    43 1   
    18     7     8 1   
    19     7    28 1   
    20     7    29 1   
    21     8    13 1   
    22     8    30 1   
    23     8    31 1   
    24     9    10 ar  
    25     9    16 ar  
    26     9    43 1   
    27    10    14 ar  
    28    10    32 1   
    29    11    14 ar  
    30    11    15 ar  
    31    11    33 1   
    32    12    34 1   
    33    12    35 1   
    34    12    36 1   
    35    13    42 1   
    36    14    37 1   
    37    15    16 ar  
    38    15    38 1   
    39    16    39 1   
    40    17    42 2   
    41    18    19 ar  
    42    18    42 1   
    43    19    20 ar  
    44    19    40 1   
    45    20    41 1   
    46    43    44 1   
    47    43    45 1   
@<TRIPOS>SUBSTRUCTURE
     1 4PI         1 TEMP              0 ****  ****    0 ROOT
