@<TRIPOS>MOLECULE
4PI
   45    47     1     0     0
SMALL
bcc


@<TRIPOS>ATOM
      1 C1          -6.0680    -4.5480    -3.5820 ca         1 4PI      -0.059300
      2 C2          -6.4220    -3.6700    -2.5580 ca         1 4PI      -0.138000
      3 C3          -5.5560    -2.6730    -2.1400 ca         1 4PI      -0.090500
      4 C7          -1.1860    -0.6300    -1.6990 c6         1 4PI       0.095500
      5 C8          -0.8540    -0.5670    -0.2140 c6         1 4PI      -0.099400
      6 C9          -0.3310    -1.9110     0.2890 c6         1 4PI      -0.056700
      7 C10         -1.3170    -3.0140    -0.0810 c6         1 4PI      -0.099400
      8 C11         -1.6450    -3.0100    -1.5700 c6         1 4PI       0.095500
      9 C21          0.6110    -3.1100     2.3140 ca         1 4PI      -0.078300
     10 C22         -0.1080    -4.0650     3.0290 ca         1 4PI      -0.126500
     11 C24          1.8470    -5.4590     3.2170 ca         1 4PI      -0.130000
     12 C27         -7.0230    -5.6070    -4.0490 c3         1 4PI      -0.050800
     13 N12         -2.1250    -1.7020    -1.9890 n          1 4PI      -0.468800
     14 C23          0.5020    -5.2310     3.4770 ca         1 4PI      -0.127000
     15 C25          2.5760    -4.5110     2.5090 ca         1 4PI      -0.127000
     16 C26          1.9610    -3.3500     2.0640 ca         1 4PI      -0.126500
     17 O32         -3.8620    -0.2790    -2.2930 o          1 4PI      -0.598100
     18 C4          -4.2930    -2.5500    -2.7130 ca         1 4PI      -0.146600
     19 C5          -3.9330    -3.4200    -3.7380 ca         1 4PI      -0.090500
     20 C6          -4.8140    -4.4000    -4.1690 ca         1 4PI      -0.138000
     21 H2          -7.3930    -3.7620    -2.0860 ha         1 4PI       0.132000
     22 H3          -5.8610    -1.9970    -1.3500 ha         1 4PI       0.140000
     23 H71         -1.5920     0.3150    -2.0500 h1         1 4PI       0.057200
     24 H72         -0.2720    -0.8260    -2.2690 h1         1 4PI       0.057200
     25 H81         -0.1100     0.2150    -0.0480 hc         1 4PI       0.051950
     26 H82         -1.7500    -0.2820     0.3480 hc         1 4PI       0.051950
     27 H9           0.6150    -2.1190    -0.2290 hc         1 4PI       0.048700
     28 H101        -2.2450    -2.8870     0.4880 hc         1 4PI       0.051950
     29 H102        -0.9180    -3.9960     0.1840 hc         1 4PI       0.051950
     30 H111        -0.7530    -3.2630    -2.1520 h1         1 4PI       0.057200
     31 H112        -2.3900    -3.7720    -1.7800 h1         1 4PI       0.057200
     32 H22         -1.1570    -3.8960     3.2400 ha         1 4PI       0.128000
     33 H24          2.3240    -6.3650     3.5680 ha         1 4PI       0.130000
     34 H271        -6.5200    -6.3590    -4.6540 hc         1 4PI       0.044367
     35 H272        -7.5010    -6.1110    -3.2090 hc         1 4PI       0.044367
     36 H273        -7.8190    -5.1730    -4.6580 hc         1 4PI       0.044367
     37 H23         -0.0750    -5.9610     4.0300 ha         1 4PI       0.130000
     38 H25          3.6260    -4.6770     2.3050 ha         1 4PI       0.130000
     39 H26          2.5410    -2.6150     1.5160 ha         1 4PI       0.128000
     40 H5          -2.9620    -3.3330    -4.2090 ha         1 4PI       0.140000
     41 H6          -4.5180    -5.0630    -4.9730 ha         1 4PI       0.132000
     42 C31         -3.4080    -1.4180    -2.2970 c          1 4PI       0.682700
     43 C37         -0.0450    -1.8610     1.7940 c3         1 4PI      -0.028100
     44 H371        -0.9820    -1.6790     2.3290 hc         1 4PI       0.049200
     45 H372         0.6020    -1.0020     1.9960 hc         1 4PI       0.049200
@<TRIPOS>BOND
     1     1     2 ar  
     2     1    12 1   
     3     1    20 ar  
     4     2     3 ar  
     5     2    21 1   
     6     3    18 ar  
     7     3    22 1   
     8     4     5 1   
     9     4    13 1   
    10     4    23 1   
    11     4    24 1   
    12     5     6 1   
    13     5    25 1   
    14     5    26 1   
    15     6     7 1   
    16     6    27 1   
    17     6    43 1   
    18     7     8 1   
    19     7    28 1   
    20     7    29 1   
    21     8    13 1   
    22     8    30 1   
    23     8    31 1   
    24     9    10 ar  
    25     9    16 ar  
    26     9    43 1   
    27    10    14 ar  
    28    10    32 1   
    29    11    14 ar  
    30    11    15 ar  
    31    11    33 1   
    32    12    34 1   
    33    12    35 1   
    34    12    36 1   
    35    13    42 1   
    36    14    37 1   
    37    15    16 ar  
    38    15    38 1   
    39    16    39 1   
    40    17    42 2   
    41    18    19 ar  
    42    18    42 1   
    43    19    20 ar  
    44    19    40 1   
    45    20    41 1   
    46    43    44 1   
    47    43    45 1   
@<TRIPOS>SUBSTRUCTURE
     1 4PI         1 TEMP              0 ****  ****    0 ROOT
