@<TRIPOS>MOLECULE
4PJ
   98    99     1     0     0
SMALL
No Charge or Current Charge


@<TRIPOS>ATOM
      1 C10          0.0720    -2.0740    25.2490 c3         1 4PJ      -0.071400
      2 C13          0.8600    -2.2790    22.7610 c3         1 4PJ      -0.033100
      3 C15         -0.0820    -0.0420    22.0220 ca         1 4PJ      -0.243000
      4 C20         -3.8700     0.8240    19.0820 c3         1 4PJ      -0.064400
      5 C21         -2.7770     1.1520    18.0250 c3         1 4PJ      -0.067400
      6 C22         -1.5980     0.1530    17.8860 c3         1 4PJ      -0.071400
      7 C24         -4.7450     1.0600    21.4940 c3         1 4PJ      -0.063400
      8 C26         -3.9350     2.6800    23.3690 c3         1 4PJ      -0.081400
      9 C28         -2.9630     4.1700    25.2940 c3         1 4PJ      -0.056700
     10 C01         -8.6440    -1.4320    28.3560 c3         1 4PJ      -0.089100
     11 C02         -7.7190    -0.2220    28.1240 c3         1 4PJ      -0.076400
     12 C04         -5.3020     0.6110    27.8000 c3         1 4PJ      -0.101400
     13 C05         -3.7840     0.2980    27.7570 c3         1 4PJ       0.196300
     14 C07         -3.3610    -0.6360    26.5970 c3         1 4PJ      -0.104400
     15 C09         -1.4260    -1.6750    25.2510 c3         1 4PJ      -0.075400
     16 C11          0.5080    -3.0190    24.0850 c3         1 4PJ      -0.055700
     17 C12          1.7030    -3.9040    24.5190 c3         1 4PJ      -0.089100
     18 C14         -0.2550    -1.4260    22.1690 ca         1 4PJ       0.005700
     19 C16         -1.1040     0.7570    21.4940 ca         1 4PJ       0.172600
     20 C18         -2.3450     0.1890    21.1010 ca         1 4PJ      -0.127300
     21 C19         -3.4890     1.0920    20.5700 c3         1 4PJ       0.007600
     22 C23         -2.0090    -1.2680    17.4510 c3         1 4PJ      -0.088100
     23 C27         -3.6140     2.8230    24.8760 c3         1 4PJ      -0.074400
     24 C29         -2.4890     4.0990    26.7670 c3         1 4PJ      -0.091100
     25 C30         -3.8970     5.3910    25.0510 c3         1 4PJ      -0.036100
     26 C31         -3.2600     6.7270    25.4180 ca         1 4PJ       0.005700
     27 C32         -3.6980     7.4440    26.5480 ca         1 4PJ      -0.213500
     28 C33         -3.1040     8.6720    26.8790 ca         1 4PJ       0.177100
     29 C35         -2.0740     9.1940    26.0890 ca         1 4PJ      -0.249000
     30 C36         -1.6350     8.4860    24.9630 ca         1 4PJ       0.177100
     31 C38         -2.2250     7.2600    24.6270 ca         1 4PJ      -0.213500
     32 C39         -2.5000    -1.2170    21.2400 ca         1 4PJ       0.172600
     33 C41         -1.4620    -2.0070    21.7570 ca         1 4PJ      -0.243000
     34 F06         -3.4020    -0.2410    28.9410 f          1 4PJ      -0.277000
     35 O17         -0.8560     2.0930    21.3650 oh         1 4PJ      -0.534600
     36 O34         -3.5260     9.3630    27.9720 oh         1 4PJ      -0.536100
     37 O37         -0.6350     8.9860    24.1880 oh         1 4PJ      -0.536100
     38 O40         -3.6550    -1.8510    20.8900 oh         1 4PJ      -0.534600
     39 H1           0.2770    -2.5750    26.2030 hc         1 4PJ       0.043200
     40 H2           0.6950    -1.1710    25.2400 hc         1 4PJ       0.043200
     41 H3           1.1590    -3.0240    22.0130 hc         1 4PJ       0.049200
     42 H4           1.7520    -1.6640    22.9330 hc         1 4PJ       0.049200
     43 H5           0.8570     0.4130    22.3280 ha         1 4PJ       0.114000
     44 H6          -4.7350     1.4560    18.8450 hc         1 4PJ       0.039200
     45 H7          -4.2220    -0.2040    18.9510 hc         1 4PJ       0.039200
     46 H8          -2.3700     2.1480    18.2360 hc         1 4PJ       0.034700
     47 H9          -3.2660     1.2300    17.0460 hc         1 4PJ       0.034700
     48 H10         -1.0280     0.0980    18.8180 hc         1 4PJ       0.036700
     49 H11         -0.9040     0.5510    17.1360 hc         1 4PJ       0.036700
     50 H12         -5.4530     1.8280    21.1590 hc         1 4PJ       0.040700
     51 H13         -5.2680     0.1050    21.3730 hc         1 4PJ       0.040700
     52 H14         -3.0270     2.8950    22.7970 hc         1 4PJ       0.043700
     53 H15         -4.6860     3.4220    23.0730 hc         1 4PJ       0.043700
     54 H16         -2.0680     4.3070    24.6750 hc         1 4PJ       0.050700
     55 H17         -9.6900    -1.1080    28.4110 hc         1 4PJ       0.032033
     56 H18         -8.5510    -2.1550    27.5360 hc         1 4PJ       0.032033
     57 H19         -8.3920    -1.9390    29.2960 hc         1 4PJ       0.032033
     58 H20         -7.8620     0.4970    28.9410 hc         1 4PJ       0.036200
     59 H21         -8.0180     0.2830    27.1970 hc         1 4PJ       0.036200
     60 H22         -6.0980    -1.3330    27.2240 hc         1 4PJ       0.045200
     61 H23         -5.9330    -1.1150    28.9670 hc         1 4PJ       0.045200
     62 H25         -5.5890     1.0940    26.8590 hc         1 4PJ       0.048200
     63 H26         -3.2490     1.2500    27.6420 h1         1 4PJ       0.048700
     64 H27         -3.7400    -0.2240    25.6550 hc         1 4PJ       0.049700
     65 H28         -3.8340    -1.6160    26.7250 hc         1 4PJ       0.049700
     66 H31         -1.6710    -1.1000    24.3530 hc         1 4PJ       0.036700
     67 H32         -2.0340    -2.5880    25.2240 hc         1 4PJ       0.036700
     68 H33         -0.3230    -3.7040    23.8790 hc         1 4PJ       0.043700
     69 H34          1.4430    -4.5040    25.4000 hc         1 4PJ       0.034033
     70 H35          1.9880    -4.5950    23.7170 hc         1 4PJ       0.034033
     71 H36          2.5750    -3.2880    24.7680 hc         1 4PJ       0.034033
     72 H37         -3.1660     2.1380    20.5820 hc         1 4PJ       0.058700
     73 H38         -1.1180    -1.8860    17.2880 hc         1 4PJ       0.028700
     74 H39         -2.6200    -1.7570    18.2180 hc         1 4PJ       0.028700
     75 H40         -2.5810    -1.2380    16.5160 hc         1 4PJ       0.028700
     76 H43         -4.5330     2.6720    25.4540 hc         1 4PJ       0.035700
     77 H44         -2.9290     2.0120    25.1510 hc         1 4PJ       0.035700
     78 H45         -1.9370     5.0020    27.0500 hc         1 4PJ       0.034700
     79 H46         -3.3430     3.9890    27.4470 hc         1 4PJ       0.034700
     80 H47         -1.8190     3.2430    26.9180 hc         1 4PJ       0.034700
     81 H48         -4.8280     5.2450    25.6120 hc         1 4PJ       0.052200
     82 H49         -4.1850     5.4280    23.9950 hc         1 4PJ       0.052200
     83 H50         -4.4970     7.0400    27.1660 ha         1 4PJ       0.121000
     84 H51         -1.6220    10.1450    26.3560 ha         1 4PJ       0.128000
     85 H52         -1.8770     6.7190    23.7510 ha         1 4PJ       0.121000
     86 H53         -1.5960    -3.0810    21.8580 ha         1 4PJ       0.114000
     87 H54          0.0550     2.2630    21.6800 ho         1 4PJ       0.463500
     88 H55         -4.2470     8.8530    28.3990 ho         1 4PJ       0.466500
     89 H56         -0.3510     9.8420    24.5730 ho         1 4PJ       0.466500
     90 H57         -3.5450    -2.8060    21.0750 ho         1 4PJ       0.463500
     91 C25         -4.4660     1.2740    23.0050 c3         1 4PJ      -0.067400
     92 C08         -1.8310    -0.8370    26.4840 c3         1 4PJ      -0.074400
     93 H24         -5.4770     1.3490    28.5920 hc         1 4PJ       0.048200
     94 C03         -6.2260    -0.6100    28.0380 c3         1 4PJ      -0.073400
     95 H29         -1.4690    -1.3320    27.3940 hc         1 4PJ       0.046200
     96 H30         -1.3340     0.1400    26.4310 hc         1 4PJ       0.046200
     97 H41         -5.3980     1.1000    23.5570 hc         1 4PJ       0.034700
     98 H42         -3.7580     0.5130    23.3550 hc         1 4PJ       0.034700
@<TRIPOS>BOND
     1     1    15 1   
     2     1    16 1   
     3     1    39 1   
     4     1    40 1   
     5     2    16 1   
     6     2    18 1   
     7     2    41 1   
     8     2    42 1   
     9     3    18 ar  
    10     3    19 ar  
    11     3    43 1   
    12     4     5 1   
    13     4    21 1   
    14     4    44 1   
    15     4    45 1   
    16     5     6 1   
    17     5    46 1   
    18     5    47 1   
    19     6    22 1   
    20     6    48 1   
    21     6    49 1   
    22     7    21 1   
    23     7    50 1   
    24     7    51 1   
    25     7    91 1   
    26     8    23 1   
    27     8    52 1   
    28     8    53 1   
    29     8    91 1   
    30     9    23 1   
    31     9    24 1   
    32     9    25 1   
    33     9    54 1   
    34    10    11 1   
    35    10    55 1   
    36    10    56 1   
    37    10    57 1   
    38    11    58 1   
    39    11    59 1   
    40    11    94 1   
    41    12    13 1   
    42    12    62 1   
    43    12    93 1   
    44    12    94 1   
    45    13    14 1   
    46    13    34 1   
    47    13    63 1   
    48    14    64 1   
    49    14    65 1   
    50    14    92 1   
    51    15    66 1   
    52    15    67 1   
    53    15    92 1   
    54    16    17 1   
    55    16    68 1   
    56    17    69 1   
    57    17    70 1   
    58    17    71 1   
    59    18    33 ar  
    60    19    20 ar  
    61    19    35 1   
    62    20    21 1   
    63    20    32 ar  
    64    21    72 1   
    65    22    73 1   
    66    22    74 1   
    67    22    75 1   
    68    23    76 1   
    69    23    77 1   
    70    24    78 1   
    71    24    79 1   
    72    24    80 1   
    73    25    26 1   
    74    25    81 1   
    75    25    82 1   
    76    26    27 ar  
    77    26    31 ar  
    78    27    28 ar  
    79    27    83 1   
    80    28    29 ar  
    81    28    36 1   
    82    29    30 ar  
    83    29    84 1   
    84    30    31 ar  
    85    30    37 1   
    86    31    85 1   
    87    32    33 ar  
    88    32    38 1   
    89    33    86 1   
    90    35    87 1   
    91    36    88 1   
    92    37    89 1   
    93    38    90 1   
    94    60    94 1   
    95    61    94 1   
    96    91    97 1   
    97    91    98 1   
    98    92    95 1   
    99    92    96 1   
@<TRIPOS>SUBSTRUCTURE
     1 4PJ         1 TEMP              0 ****  ****    0 ROOT
