@<TRIPOS>MOLECULE
4PJ
   98    99     1     0     0
SMALL
bcc


@<TRIPOS>ATOM
      1 C10         -0.3320    -0.9110    25.3320 c3         1 4PJ      -0.071400
      2 C13          0.8210    -1.2110    23.0650 c3         1 4PJ      -0.033100
      3 C15         -0.2760     0.8470    22.1320 ca         1 4PJ      -0.261000
      4 C20         -3.7800     1.2140    18.9010 c3         1 4PJ      -0.064400
      5 C21         -2.6020     1.6070    18.0050 c3         1 4PJ      -0.067400
      6 C22         -1.3980     0.6640    17.9680 c3         1 4PJ      -0.071400
      7 C24         -4.9780     1.3210    21.1130 c3         1 4PJ      -0.063400
      8 C26         -4.4100     2.7910    23.1240 c3         1 4PJ      -0.081400
      9 C28         -3.4120     3.9020    25.2060 c3         1 4PJ      -0.056700
     10 C01         -8.1150    -3.2640    29.5200 c3         1 4PJ      -0.089100
     11 C02         -7.8940    -1.9560    28.7740 c3         1 4PJ      -0.076400
     12 C04         -6.2130    -0.3060    27.8530 c3         1 4PJ      -0.101400
     13 C05         -4.7710     0.1100    27.6360 c3         1 4PJ       0.177600
     14 C07         -3.9590    -0.8290    26.7690 c3         1 4PJ      -0.104400
     15 C09         -1.7840    -1.3040    25.5800 c3         1 4PJ      -0.075400
     16 C11          0.3910    -1.8840    24.3760 c3         1 4PJ      -0.055700
     17 C12          1.5930    -2.5440    25.0420 c3         1 4PJ      -0.089100
     18 C14         -0.3050    -0.5220    22.3440 ca         1 4PJ       0.005700
     19 C16         -1.3350     1.4900    21.4930 ca         1 4PJ       0.172600
     20 C18         -2.4710     0.7960    21.0640 ca         1 4PJ      -0.127300
     21 C19         -3.6250     1.5180    20.4000 c3         1 4PJ       0.007600
     22 C23         -1.7280    -0.7440    17.4900 c3         1 4PJ      -0.088100
     23 C27         -4.4570     2.9380    24.6430 c3         1 4PJ      -0.074400
     24 C29         -3.4530     3.9260    26.7290 c3         1 4PJ      -0.091100
     25 C30         -3.5580     5.3160    24.6220 c3         1 4PJ      -0.036100
     26 C31         -2.3630     6.1840    24.9000 ca         1 4PJ       0.005700
     27 C32         -2.4010     7.1620    25.8880 ca         1 4PJ      -0.231500
     28 C33         -1.2700     7.9310    26.1480 ca         1 4PJ       0.177100
     29 C35         -0.0980     7.7310    25.4250 ca         1 4PJ      -0.267000
     30 C36         -0.0680     6.7520    24.4370 ca         1 4PJ       0.177100
     31 C38         -1.1960     5.9810    24.1710 ca         1 4PJ      -0.231500
     32 C39         -2.4680    -0.5880    21.2770 ca         1 4PJ       0.172600
     33 C41         -1.4080    -1.2390    21.8990 ca         1 4PJ      -0.261000
     34 F06         -4.1390     0.2380    28.8860 f          1 4PJ      -0.258300
     35 O17         -1.2770     2.8230    21.2630 oh         1 4PJ      -0.495600
     36 O34         -1.2540     8.8900    27.0960 oh         1 4PJ      -0.497100
     37 O37          1.0370     6.5130    23.7030 oh         1 4PJ      -0.497100
     38 O40         -3.5440    -1.2890    20.8540 oh         1 4PJ      -0.495600
     39 H1           0.1940    -0.8740    26.2910 hc         1 4PJ       0.043200
     40 H2          -0.3000     0.1100    24.9380 hc         1 4PJ       0.043200
     41 H3           1.2660    -1.9680    22.4130 hc         1 4PJ       0.049200
     42 H4           1.6100    -0.4830    23.2770 hc         1 4PJ       0.049200
     43 H5           0.5810     1.4240    22.4670 ha         1 4PJ       0.132000
     44 H6          -4.6540     1.7790    18.5610 hc         1 4PJ       0.039200
     45 H7          -4.0410     0.1640    18.7530 hc         1 4PJ       0.039200
     46 H8          -2.2620     2.6090    18.2840 hc         1 4PJ       0.034700
     47 H9          -2.9780     1.6980    16.9810 hc         1 4PJ       0.034700
     48 H10         -0.9190     0.6090    18.9470 hc         1 4PJ       0.036700
     49 H11         -0.6540     1.1000    17.2950 hc         1 4PJ       0.036700
     50 H12         -5.6640     2.0720    20.7060 hc         1 4PJ       0.040700
     51 H13         -5.4060     0.3530    20.8480 hc         1 4PJ       0.040700
     52 H14         -3.3740     2.9070    22.7950 hc         1 4PJ       0.043700
     53 H15         -4.9670     3.6020    22.6450 hc         1 4PJ       0.043700
     54 H16         -2.4300     3.5170    24.9000 hc         1 4PJ       0.050700
     55 H17         -9.1770    -3.4850    29.6370 hc         1 4PJ       0.032033
     56 H18         -7.6600    -4.1030    28.9900 hc         1 4PJ       0.032033
     57 H19         -7.6740    -3.2280    30.5180 hc         1 4PJ       0.032033
     58 H20         -8.3870    -1.1400    29.3110 hc         1 4PJ       0.036200
     59 H21         -8.3770    -2.0080    27.7930 hc         1 4PJ       0.036200
     60 H22         -5.9350    -2.4430    28.0520 hc         1 4PJ       0.045200
     61 H23         -5.9360    -1.5770    29.5730 hc         1 4PJ       0.045200
     62 H25         -6.6880    -0.3580    26.8680 hc         1 4PJ       0.048200
     63 H26         -4.7580     1.1080    27.1880 h1         1 4PJ       0.048700
     64 H27         -4.4830    -0.9170    25.8120 hc         1 4PJ       0.049700
     65 H28         -3.9470    -1.8320    27.2040 hc         1 4PJ       0.049700
     66 H31         -2.3120    -1.3500    24.6220 hc         1 4PJ       0.036700
     67 H32         -1.8130    -2.3200    25.9880 hc         1 4PJ       0.036700
     68 H33         -0.3120    -2.6830    24.1130 hc         1 4PJ       0.043700
     69 H34          1.2990    -3.0650    25.9550 hc         1 4PJ       0.034033
     70 H35          2.0680    -3.2710    24.3810 hc         1 4PJ       0.034033
     71 H36          2.3460    -1.8000    25.3140 hc         1 4PJ       0.034033
     72 H37         -3.4050     2.5850    20.4630 hc         1 4PJ       0.058700
     73 H38         -0.8240    -1.3440    17.3840 hc         1 4PJ       0.028700
     74 H39         -2.3840    -1.2660    18.1870 hc         1 4PJ       0.028700
     75 H40         -2.2280    -0.7250    16.5190 hc         1 4PJ       0.028700
     76 H43         -5.4600     3.2410    24.9650 hc         1 4PJ       0.035700
     77 H44         -4.2800     1.9570    25.0970 hc         1 4PJ       0.035700
     78 H45         -2.6840     4.5780    27.1470 hc         1 4PJ       0.034700
     79 H46         -4.4210     4.2820    27.0880 hc         1 4PJ       0.034700
     80 H47         -3.2930     2.9280    27.1400 hc         1 4PJ       0.034700
     81 H48         -4.4650     5.7790    25.0240 hc         1 4PJ       0.052200
     82 H49         -3.6940     5.2510    23.5400 hc         1 4PJ       0.052200
     83 H50         -3.3120     7.3230    26.4560 ha         1 4PJ       0.139000
     84 H51          0.7760     8.3370    25.6360 ha         1 4PJ       0.146000
     85 H52         -1.1600     5.2250    23.3950 ha         1 4PJ       0.139000
     86 H53         -1.4530    -2.3140    22.0450 ha         1 4PJ       0.132000
     87 H54         -0.4640     3.1860    21.6320 ho         1 4PJ       0.424500
     88 H55         -2.1130     8.9450    27.5280 ho         1 4PJ       0.427500
     89 H56          1.7520     7.1040    23.9660 ho         1 4PJ       0.427500
     90 H57         -3.4300    -2.2230    21.0620 ho         1 4PJ       0.424500
     91 C25         -4.9490     1.4550    22.6310 c3         1 4PJ      -0.067400
     92 C08         -2.5280    -0.3650    26.5180 c3         1 4PJ      -0.074400
     93 H24         -6.7310     0.4940    28.3920 hc         1 4PJ       0.048200
     94 C03         -6.4180    -1.6240    28.5920 c3         1 4PJ      -0.073400
     95 H29         -1.9860    -0.2940    27.4660 hc         1 4PJ       0.046200
     96 H30         -2.5380     0.6450    26.0930 hc         1 4PJ       0.046200
     97 H41         -5.9670     1.3130    23.0110 hc         1 4PJ       0.034700
     98 H42         -4.3540     0.6460    23.0680 hc         1 4PJ       0.034700
@<TRIPOS>BOND
     1     1    15 1   
     2     1    16 1   
     3     1    39 1   
     4     1    40 1   
     5     2    16 1   
     6     2    18 1   
     7     2    41 1   
     8     2    42 1   
     9     3    18 ar  
    10     3    19 ar  
    11     3    43 1   
    12     4     5 1   
    13     4    21 1   
    14     4    44 1   
    15     4    45 1   
    16     5     6 1   
    17     5    46 1   
    18     5    47 1   
    19     6    22 1   
    20     6    48 1   
    21     6    49 1   
    22     7    21 1   
    23     7    50 1   
    24     7    51 1   
    25     7    91 1   
    26     8    23 1   
    27     8    52 1   
    28     8    53 1   
    29     8    91 1   
    30     9    23 1   
    31     9    24 1   
    32     9    25 1   
    33     9    54 1   
    34    10    11 1   
    35    10    55 1   
    36    10    56 1   
    37    10    57 1   
    38    11    58 1   
    39    11    59 1   
    40    11    94 1   
    41    12    13 1   
    42    12    62 1   
    43    12    93 1   
    44    12    94 1   
    45    13    14 1   
    46    13    34 1   
    47    13    63 1   
    48    14    64 1   
    49    14    65 1   
    50    14    92 1   
    51    15    66 1   
    52    15    67 1   
    53    15    92 1   
    54    16    17 1   
    55    16    68 1   
    56    17    69 1   
    57    17    70 1   
    58    17    71 1   
    59    18    33 ar  
    60    19    20 ar  
    61    19    35 1   
    62    20    21 1   
    63    20    32 ar  
    64    21    72 1   
    65    22    73 1   
    66    22    74 1   
    67    22    75 1   
    68    23    76 1   
    69    23    77 1   
    70    24    78 1   
    71    24    79 1   
    72    24    80 1   
    73    25    26 1   
    74    25    81 1   
    75    25    82 1   
    76    26    27 ar  
    77    26    31 ar  
    78    27    28 ar  
    79    27    83 1   
    80    28    29 ar  
    81    28    36 1   
    82    29    30 ar  
    83    29    84 1   
    84    30    31 ar  
    85    30    37 1   
    86    31    85 1   
    87    32    33 ar  
    88    32    38 1   
    89    33    86 1   
    90    35    87 1   
    91    36    88 1   
    92    37    89 1   
    93    38    90 1   
    94    60    94 1   
    95    61    94 1   
    96    91    97 1   
    97    91    98 1   
    98    92    95 1   
    99    92    96 1   
@<TRIPOS>SUBSTRUCTURE
     1 4PJ         1 TEMP              0 ****  ****    0 ROOT
