@<TRIPOS>MOLECULE
4PK
   99   100     1     0     0
SMALL
No Charge or Current Charge


@<TRIPOS>ATOM
      1 C10         -9.6220     2.5810     0.0390 ca         1 4PK      -0.083500
      2 C02         -5.2820     1.9000     0.9740 c          1 4PK       0.641100
      3 O03         -6.4000     2.2840     0.3040 os         1 4PK      -0.453100
      4 C04         -7.3300     3.1290     0.9980 c3         1 4PK       0.231900
      5 C05         -8.4960     3.4280     0.0640 ca         1 4PK      -0.103300
      6 C06         -8.4570     4.5530    -0.7840 ca         1 4PK      -0.083500
      7 C07         -9.5340     4.8290    -1.6460 ca         1 4PK      -0.115000
      8 C08        -10.6550     3.9820    -1.6650 ca         1 4PK      -0.097000
      9 C09        -10.6980     2.8570    -0.8230 ca         1 4PK      -0.115000
     10 O11         -4.9890     2.2110     2.1170 o          1 4PK      -0.548000
     11 N01         -4.5270     1.1090     0.1570 ns         1 4PK      -0.497900
     12 C12         -3.2180     0.5160     0.5090 c3         1 4PK       0.051700
     13 C13         -3.3810    -0.9040     1.1170 c3         1 4PK      -0.101400
     14 C14         -4.1980    -0.9490     2.4250 c3         1 4PK       0.157600
     15 C20         -2.2900     0.4940    -0.7420 c          1 4PK       0.591100
     16 O15         -4.1690    -2.3060     2.9080 os         1 4PK      -0.250300
     17 N16         -4.9020    -2.4440     4.1360 nu         1 4PK      -0.675900
     18 C17         -4.4560    -3.4010     4.9650 c2         1 4PK       0.754100
     19 N18         -3.3700    -3.2870     5.5630 n2         1 4PK      -0.861100
     20 N19         -5.4700    -4.1460     5.3580 nv         1 4PK      -1.030200
     21 O21         -2.7020     0.6750    -1.8820 o          1 4PK      -0.604100
     22 N22         -0.9580     0.2500    -0.4790 ns         1 4PK      -0.484900
     23 C23          0.1210     0.1870    -1.4950 c3         1 4PK       0.026700
     24 C27          1.1030    -0.9730    -1.1570 c          1 4PK       0.585100
     25 O28          1.1090    -1.5480    -0.0760 o          1 4PK      -0.604100
     26 C24          0.8560     1.5560    -1.6520 c3         1 4PK      -0.064700
     27 C26         -0.0480     2.6470    -2.2720 c3         1 4PK      -0.091600
     28 C25          1.4970     2.0550    -0.3320 c3         1 4PK      -0.091600
     29 N29          1.9710    -1.3180    -2.1750 ns         1 4PK      -0.506900
     30 C30          2.9410    -2.4280    -2.1160 c3         1 4PK       0.074700
     31 C31          2.9050    -3.2500    -3.4340 c3         1 4PK      -0.088400
     32 C32          1.5130    -3.8170    -3.8410 c3         1 4PK      -0.059700
     33 C33          1.5900    -4.5300    -5.2100 c3         1 4PK      -0.091100
     34 C34          0.9090    -4.7550    -2.7690 c3         1 4PK      -0.091100
     35 C35          4.3810    -1.9480    -1.7460 c3         1 4PK       0.166300
     36 O36          4.8460    -0.9840    -2.7010 oh         1 4PK      -0.647000
     37 C37          4.4720    -1.3190    -0.3390 c3         1 4PK      -0.197400
     38 C38          5.9240    -1.1420     0.0930 c          1 4PK       0.610100
     39 O39          6.6330    -2.0890     0.4030 o          1 4PK      -0.600100
     40 C43          9.2460     1.0040     2.5550 ca         1 4PK      -0.083300
     41 C44          9.4840     2.3510     2.8940 ca         1 4PK      -0.104000
     42 C45         10.7670     2.7660     3.2910 ca         1 4PK      -0.108000
     43 C46         11.8200     1.8380     3.3490 ca         1 4PK      -0.108000
     44 C47         11.5900     0.4940     3.0100 ca         1 4PK      -0.108000
     45 C48         10.3060     0.0790     2.6140 ca         1 4PK      -0.104000
     46 C42          7.8590     0.5530     2.1190 c3         1 4PK      -0.049100
     47 C41          7.7030     0.5730     0.5860 c3         1 4PK       0.100000
     48 N40          6.3640     0.1610     0.1540 ns         1 4PK      -0.507900
     49 H1          -9.6620     1.7070     0.6860 ha         1 4PK       0.114500
     50 H9          -7.7040     2.6350     1.9050 h1         1 4PK       0.057200
     51 H10         -6.8510     4.0710     1.3000 h1         1 4PK       0.057200
     52 H11         -7.5920     5.2120    -0.7780 ha         1 4PK       0.114500
     53 H12         -9.4980     5.6980    -2.2980 ha         1 4PK       0.115000
     54 H13        -11.4870     4.1950    -2.3320 ha         1 4PK       0.114000
     55 H14        -11.5640     2.2000    -0.8380 ha         1 4PK       0.115000
     56 H8          -4.8850     0.9790    -0.7820 hn         1 4PK       0.350500
     57 H15         -2.7250     1.1630     1.2480 h1         1 4PK       0.091700
     58 H2          -3.8580    -1.5590     0.3770 hc         1 4PK       0.067200
     59 H3          -2.3890    -1.3260     1.3180 hc         1 4PK       0.067200
     60 H16         -3.7520    -0.2660     3.1610 h1         1 4PK       0.053700
     61 H17         -5.2300    -0.6300     2.2320 h1         1 4PK       0.053700
     62 H18         -5.8820    -2.6080     3.9190 hn         1 4PK       0.454000
     63 H19         -2.9090    -2.4930     5.1050 hn         1 4PK       0.402400
     64 H20         -5.7860    -4.7630     4.6210 hn         1 4PK       0.468500
     65 H21         -5.2230    -4.6560     6.1960 hn         1 4PK       0.468500
     66 H22         -0.7060     0.0700     0.4870 hn         1 4PK       0.336500
     67 H23         -0.3250    -0.0790    -2.4630 h1         1 4PK       0.091700
     68 H4           1.6770     1.4040    -2.3640 hc         1 4PK       0.043700
     69 H5          -0.8630     2.9210    -1.5910 hc         1 4PK       0.041200
     70 H6           0.5320     3.5520    -2.4860 hc         1 4PK       0.041200
     71 H7          -0.4880     2.2980    -3.2140 hc         1 4PK       0.041200
     72 H24          2.1760     1.3040     0.0880 hc         1 4PK       0.041200
     73 H25          2.0780     2.9680    -0.5090 hc         1 4PK       0.041200
     74 H26          0.7310     2.2820     0.4190 hc         1 4PK       0.041200
     75 H27          1.8590    -0.8250    -3.0520 hn         1 4PK       0.313500
     76 H28          2.6310    -3.1100    -1.3120 h1         1 4PK       0.089700
     77 H29          3.2760    -2.6190    -4.2520 hc         1 4PK       0.056200
     78 H30          3.6130    -4.0830    -3.3470 hc         1 4PK       0.056200
     79 H31          0.8220    -2.9740    -3.9650 hc         1 4PK       0.040700
     80 H32          2.2600    -5.3970    -5.1630 hc         1 4PK       0.036367
     81 H33          0.5990    -4.8790    -5.5230 hc         1 4PK       0.036367
     82 H34          1.9650    -3.8480    -5.9830 hc         1 4PK       0.036367
     83 H35          0.7130    -4.2160    -1.8350 hc         1 4PK       0.036367
     84 H36         -0.0450    -5.1720    -3.1140 hc         1 4PK       0.036367
     85 H37          1.5880    -5.5890    -2.5520 hc         1 4PK       0.036367
     86 H38          5.0330    -2.8340    -1.7580 h1         1 4PK       0.102700
     87 H39          4.1410    -0.3090    -2.7870 ho         1 4PK       0.433000
     88 H40          3.9510    -0.3560    -0.3340 hc         1 4PK       0.070200
     89 H41          3.9910    -2.0000     0.3730 hc         1 4PK       0.070200
     90 H47          8.6750     3.0770     2.8500 ha         1 4PK       0.111500
     91 H48         10.9450     3.8070     3.5520 ha         1 4PK       0.113500
     92 H49         12.8130     2.1600     3.6560 ha         1 4PK       0.113000
     93 H50         12.4050    -0.2250     3.0540 ha         1 4PK       0.113500
     94 H51         10.1360    -0.9630     2.3510 ha         1 4PK       0.111500
     95 H45          7.6610    -0.4590     2.4910 hc         1 4PK       0.049200
     96 H46          7.0930     1.1990     2.5650 hc         1 4PK       0.049200
     97 H43          7.8930     1.5890     0.2150 h1         1 4PK       0.060700
     98 H44          8.4480    -0.0940     0.1320 h1         1 4PK       0.060700
     99 H42          5.7040     0.8780    -0.1240 hn         1 4PK       0.304500
@<TRIPOS>BOND
     1     1     5 ar  
     2     1     9 ar  
     3     1    49 1   
     4     2     3 1   
     5     2    10 2   
     6     2    11 1   
     7     3     4 1   
     8     4     5 1   
     9     4    50 1   
    10     4    51 1   
    11     5     6 ar  
    12     6     7 ar  
    13     6    52 1   
    14     7     8 ar  
    15     7    53 1   
    16     8     9 ar  
    17     8    54 1   
    18     9    55 1   
    19    11    12 1   
    20    11    56 1   
    21    12    13 1   
    22    12    15 1   
    23    12    57 1   
    24    13    14 1   
    25    13    58 1   
    26    13    59 1   
    27    14    16 1   
    28    14    60 1   
    29    14    61 1   
    30    15    21 2   
    31    15    22 1   
    32    16    17 1   
    33    17    18 1   
    34    17    62 1   
    35    18    19 2   
    36    18    20 1   
    37    19    63 1   
    38    20    64 1   
    39    20    65 1   
    40    22    23 1   
    41    22    66 1   
    42    23    24 1   
    43    23    26 1   
    44    23    67 1   
    45    24    25 2   
    46    24    29 1   
    47    26    27 1   
    48    26    28 1   
    49    26    68 1   
    50    27    69 1   
    51    27    70 1   
    52    27    71 1   
    53    28    72 1   
    54    28    73 1   
    55    28    74 1   
    56    29    30 1   
    57    29    75 1   
    58    30    31 1   
    59    30    35 1   
    60    30    76 1   
    61    31    32 1   
    62    31    77 1   
    63    31    78 1   
    64    32    33 1   
    65    32    34 1   
    66    32    79 1   
    67    33    80 1   
    68    33    81 1   
    69    33    82 1   
    70    34    83 1   
    71    34    84 1   
    72    34    85 1   
    73    35    36 1   
    74    35    37 1   
    75    35    86 1   
    76    36    87 1   
    77    37    38 1   
    78    37    88 1   
    79    37    89 1   
    80    38    39 2   
    81    38    48 1   
    82    40    41 ar  
    83    40    45 ar  
    84    40    46 1   
    85    41    42 ar  
    86    41    90 1   
    87    42    43 ar  
    88    42    91 1   
    89    43    44 ar  
    90    43    92 1   
    91    44    45 ar  
    92    44    93 1   
    93    45    94 1   
    94    46    47 1   
    95    46    95 1   
    96    46    96 1   
    97    47    48 1   
    98    47    97 1   
    99    47    98 1   
   100    48    99 1   
@<TRIPOS>SUBSTRUCTURE
     1 4PK         1 TEMP              0 ****  ****    0 ROOT
