@<TRIPOS>MOLECULE
4PK
   99   100     1     0     0
SMALL
bcc


@<TRIPOS>ATOM
      1 C10         -9.1580     3.2570     0.0930 ca         1 4PK      -0.101500
      2 C02         -5.0800     1.5760     0.9740 c          1 4PK       0.757100
      3 O03         -6.0940     2.2110     0.3790 os         1 4PK      -0.429900
      4 C04         -6.9180     3.0390     1.2090 c3         1 4PK       0.208700
      5 C05         -7.8740     3.7520     0.3030 ca         1 4PK      -0.103300
      6 C06         -7.4780     4.9100    -0.3610 ca         1 4PK      -0.101500
      7 C07         -8.3500     5.5640    -1.2190 ca         1 4PK      -0.133000
      8 C08         -9.6310     5.0640    -1.4230 ca         1 4PK      -0.115000
      9 C09        -10.0340     3.9100    -0.7630 ca         1 4PK      -0.133000
     10 O11         -4.8200     1.6700     2.1560 o          1 4PK      -0.597000
     11 N01         -4.4040     0.8220     0.0870 ns         1 4PK      -0.564900
     12 C12         -3.2080     0.0990     0.4280 c3         1 4PK       0.051700
     13 C13         -3.4460    -1.4070     0.6140 c3         1 4PK      -0.101400
     14 C14         -4.4270    -1.6880     1.7350 c3         1 4PK       0.134400
     15 C20         -2.1790     0.2990    -0.6840 c          1 4PK       0.658100
     16 O15         -4.4970    -3.1020     1.8780 os         1 4PK      -0.227100
     17 N16         -5.3640    -3.4350     2.8970 nu         1 4PK      -0.620700
     18 C17         -4.7340    -4.0340     3.9940 c2         1 4PK       0.754100
     19 N18         -3.4840    -4.0400     4.2360 n2         1 4PK      -0.861100
     20 N19         -5.6400    -4.5320     4.8910 nv         1 4PK      -0.919800
     21 O21         -2.5200     0.5180    -1.8350 o          1 4PK      -0.604100
     22 N22         -0.9060     0.1710    -0.2820 ns         1 4PK      -0.551900
     23 C23          0.2250     0.1410    -1.1720 c3         1 4PK       0.026700
     24 C27          1.0500    -1.1120    -0.8790 c          1 4PK       0.652100
     25 O28          0.9470    -1.7160     0.1760 o          1 4PK      -0.604100
     26 C24          1.0910     1.4160    -1.0660 c3         1 4PK      -0.064700
     27 C26          0.2900     2.6440    -1.4820 c3         1 4PK      -0.091600
     28 C25          1.6820     1.6090     0.3270 c3         1 4PK      -0.091600
     29 N29          1.9060    -1.4480    -1.8590 ns         1 4PK      -0.573900
     30 C30          2.7620    -2.6240    -1.8390 c3         1 4PK       0.074700
     31 C31          2.6150    -3.4010    -3.1440 c3         1 4PK      -0.088400
     32 C32          1.2000    -3.8960    -3.4510 c3         1 4PK      -0.059700
     33 C33          1.1820    -4.5800    -4.8150 c3         1 4PK      -0.091100
     34 C34          0.6700    -4.8360    -2.3730 c3         1 4PK      -0.091100
     35 C35          4.2230    -2.2450    -1.5610 c3         1 4PK       0.143100
     36 O36          4.7690    -1.4220    -2.5670 oh         1 4PK      -0.584800
     37 C37          4.3940    -1.6070    -0.1850 c3         1 4PK      -0.197400
     38 C38          5.8540    -1.3390     0.1040 c          1 4PK       0.677100
     39 O39          6.6830    -2.2400     0.0790 o          1 4PK      -0.600100
     40 C43          8.8640     1.9600     2.0800 ca         1 4PK      -0.083300
     41 C44          9.4540     2.9930     1.3550 ca         1 4PK      -0.122000
     42 C45         10.7570     3.3950     1.6200 ca         1 4PK      -0.126000
     43 C46         11.4910     2.7640     2.6160 ca         1 4PK      -0.126000
     44 C47         10.9140     1.7320     3.3450 ca         1 4PK      -0.126000
     45 C48          9.6110     1.3340     3.0760 ca         1 4PK      -0.122000
     46 C42          7.4720     1.4930     1.7610 c3         1 4PK      -0.049100
     47 C41          7.4980     0.3990     0.6960 c3         1 4PK       0.100000
     48 N40          6.1620    -0.0650     0.3920 ns         1 4PK      -0.574900
     49 H1          -9.4760     2.3570     0.6060 ha         1 4PK       0.132500
     50 H9          -7.4530     2.4240     1.9360 h1         1 4PK       0.057200
     51 H10         -6.3010     3.7530     1.7570 h1         1 4PK       0.057200
     52 H11         -6.4830     5.3080    -0.2010 ha         1 4PK       0.132500
     53 H12         -8.0340     6.4660    -1.7260 ha         1 4PK       0.133000
     54 H13        -10.3120     5.5740    -2.0910 ha         1 4PK       0.132000
     55 H14        -11.0320     3.5190    -0.9150 ha         1 4PK       0.133000
     56 H8          -4.6790     0.8340    -0.8840 hn         1 4PK       0.350500
     57 H15         -2.8140     0.5090     1.3610 h1         1 4PK       0.091700
     58 H2          -3.8120    -1.8380    -0.3220 hc         1 4PK       0.067200
     59 H3          -2.4900    -1.8860     0.8420 hc         1 4PK       0.067200
     60 H16         -4.0880    -1.2270     2.6690 h1         1 4PK       0.053700
     61 H17         -5.4180    -1.2880     1.4980 h1         1 4PK       0.053700
     62 H18         -6.1330    -3.9710     2.5100 hn         1 4PK       0.398800
     63 H19         -2.9670    -3.6160     3.4760 hn         1 4PK       0.402400
     64 H20         -6.5470    -4.8080     4.5510 hn         1 4PK       0.413300
     65 H21         -5.2540    -5.1740     5.5630 hn         1 4PK       0.413300
     66 H22         -0.7300    -0.0530     0.6850 hn         1 4PK       0.336500
     67 H23         -0.1590     0.0820    -2.1930 h1         1 4PK       0.091700
     68 H4           1.9130     1.2970    -1.7790 hc         1 4PK       0.043700
     69 H5          -0.5200     2.8450    -0.7800 hc         1 4PK       0.041200
     70 H6           0.9330     3.5250    -1.5010 hc         1 4PK       0.041200
     71 H7          -0.1440     2.5260    -2.4750 hc         1 4PK       0.041200
     72 H24          2.2960     0.7660     0.6490 hc         1 4PK       0.041200
     73 H25          2.3160     2.4960     0.3450 hc         1 4PK       0.041200
     74 H26          0.9010     1.7540     1.0750 hc         1 4PK       0.041200
     75 H27          1.8300    -0.9520    -2.7350 hn         1 4PK       0.313500
     76 H28          2.4350    -3.2500    -1.0070 h1         1 4PK       0.089700
     77 H29          2.9680    -2.7810    -3.9740 hc         1 4PK       0.056200
     78 H30          3.2900    -4.2630    -3.1020 hc         1 4PK       0.056200
     79 H31          0.5320    -3.0300    -3.5030 hc         1 4PK       0.040700
     80 H32          1.8320    -5.4580    -4.8220 hc         1 4PK       0.036367
     81 H33          0.1760    -4.9100    -5.0780 hc         1 4PK       0.036367
     82 H34          1.5280    -3.9070    -5.6020 hc         1 4PK       0.036367
     83 H35          0.5590    -4.3400    -1.4080 hc         1 4PK       0.036367
     84 H36         -0.3110    -5.2280    -2.6470 hc         1 4PK       0.036367
     85 H37          1.3400    -5.6890    -2.2340 hc         1 4PK       0.036367
     86 H38          4.8050    -3.1700    -1.5840 h1         1 4PK       0.102700
     87 H39          4.3310    -0.5650    -2.5400 ho         1 4PK       0.394000
     88 H40          3.7940    -0.6950    -0.1190 hc         1 4PK       0.070200
     89 H41          4.0120    -2.2850     0.5820 hc         1 4PK       0.070200
     90 H47          8.8840     3.4920     0.5800 ha         1 4PK       0.129500
     91 H48         11.1980     4.2020     1.0490 ha         1 4PK       0.131500
     92 H49         12.5060     3.0770     2.8250 ha         1 4PK       0.131000
     93 H50         11.4780     1.2380     4.1250 ha         1 4PK       0.131500
     94 H51          9.1670     0.5290     3.6510 ha         1 4PK       0.129500
     95 H45          6.9860     1.1080     2.6600 hc         1 4PK       0.049200
     96 H46          6.8700     2.3350     1.4050 hc         1 4PK       0.049200
     97 H43          7.9880     0.7750    -0.2070 h1         1 4PK       0.060700
     98 H44          8.0840    -0.4480     1.0500 h1         1 4PK       0.060700
     99 H42          5.4340     0.6280     0.3430 hn         1 4PK       0.304500
@<TRIPOS>BOND
     1     1     5 ar  
     2     1     9 ar  
     3     1    49 1   
     4     2     3 1   
     5     2    10 2   
     6     2    11 1   
     7     3     4 1   
     8     4     5 1   
     9     4    50 1   
    10     4    51 1   
    11     5     6 ar  
    12     6     7 ar  
    13     6    52 1   
    14     7     8 ar  
    15     7    53 1   
    16     8     9 ar  
    17     8    54 1   
    18     9    55 1   
    19    11    12 1   
    20    11    56 1   
    21    12    13 1   
    22    12    15 1   
    23    12    57 1   
    24    13    14 1   
    25    13    58 1   
    26    13    59 1   
    27    14    16 1   
    28    14    60 1   
    29    14    61 1   
    30    15    21 2   
    31    15    22 1   
    32    16    17 1   
    33    17    18 1   
    34    17    62 1   
    35    18    19 2   
    36    18    20 1   
    37    19    63 1   
    38    20    64 1   
    39    20    65 1   
    40    22    23 1   
    41    22    66 1   
    42    23    24 1   
    43    23    26 1   
    44    23    67 1   
    45    24    25 2   
    46    24    29 1   
    47    26    27 1   
    48    26    28 1   
    49    26    68 1   
    50    27    69 1   
    51    27    70 1   
    52    27    71 1   
    53    28    72 1   
    54    28    73 1   
    55    28    74 1   
    56    29    30 1   
    57    29    75 1   
    58    30    31 1   
    59    30    35 1   
    60    30    76 1   
    61    31    32 1   
    62    31    77 1   
    63    31    78 1   
    64    32    33 1   
    65    32    34 1   
    66    32    79 1   
    67    33    80 1   
    68    33    81 1   
    69    33    82 1   
    70    34    83 1   
    71    34    84 1   
    72    34    85 1   
    73    35    36 1   
    74    35    37 1   
    75    35    86 1   
    76    36    87 1   
    77    37    38 1   
    78    37    88 1   
    79    37    89 1   
    80    38    39 2   
    81    38    48 1   
    82    40    41 ar  
    83    40    45 ar  
    84    40    46 1   
    85    41    42 ar  
    86    41    90 1   
    87    42    43 ar  
    88    42    91 1   
    89    43    44 ar  
    90    43    92 1   
    91    44    45 ar  
    92    44    93 1   
    93    45    94 1   
    94    46    47 1   
    95    46    95 1   
    96    46    96 1   
    97    47    48 1   
    98    47    97 1   
    99    47    98 1   
   100    48    99 1   
@<TRIPOS>SUBSTRUCTURE
     1 4PK         1 TEMP              0 ****  ****    0 ROOT
