@<TRIPOS>MOLECULE
4PL
   19    20     1     0     0
SMALL
No Charge or Current Charge


@<TRIPOS>ATOM
      1 CAA          3.3390    -0.4800     0.0790 c3         1 4PL      -0.155400
      2 OAC          0.8810    -2.1590     0.1920 oh         1 4PL      -0.495100
      3 CAD          0.5850     1.9870    -0.0800 ca         1 4PL       0.326900
      4 CAE         -2.0200     1.5970    -0.0520 c5         1 4PL       0.209900
      5 NAF          1.8240     1.4280    -0.0450 nb         1 4PL      -0.628000
      6 OAG         -2.7440     0.3200     0.0330 os         1 4PL      -0.427100
      7 CAH         -1.8470    -0.7300     0.1010 c          1 4PL       0.682700
      8 CAI          1.9190     0.0700     0.0450 ca         1 4PL       0.268300
      9 CAJ         -0.5710     1.1920    -0.0270 ca         1 4PL      -0.125300
     10 CAK          0.7790    -0.7930     0.1030 ca         1 4PL       0.173100
     11 CAL         -0.4770    -0.1730     0.0630 ca         1 4PL      -0.209600
     12 HAA          3.5230    -1.0360     1.0060 hc         1 4PL       0.056367
     13 HAAA         3.5210    -1.1530    -0.7670 hc         1 4PL       0.056367
     14 HAAB         4.0880     0.3190     0.0260 hc         1 4PL       0.056367
     15 HOAC         1.8290    -2.4100     0.2080 ho         1 4PL       0.478000
     16 HAD          0.5280     3.0730    -0.1510 h4         1 4PL       0.033100
     17 HAE         -2.2870     2.1140    -0.9830 h1         1 4PL       0.079700
     18 HAEA        -2.2850     2.2310     0.8050 h1         1 4PL       0.079700
     19 OAB         -2.1610    -1.9090     0.1790 o          1 4PL      -0.460000
@<TRIPOS>BOND
     1     1     8 1   
     2     1    12 1   
     3     1    13 1   
     4     1    14 1   
     5     2    10 1   
     6     2    15 1   
     7     3     5 ar  
     8     3     9 ar  
     9     3    16 1   
    10     4     6 1   
    11     4     9 1   
    12     4    17 1   
    13     4    18 1   
    14     5     8 ar  
    15     6     7 1   
    16     7    11 1   
    17     7    19 2   
    18     8    10 ar  
    19     9    11 ar  
    20    10    11 ar  
@<TRIPOS>SUBSTRUCTURE
     1 4PL         1 TEMP              0 ****  ****    0 ROOT
