@<TRIPOS>MOLECULE
4PL
   19    20     1     0     0
SMALL
abcg2


@<TRIPOS>ATOM
      1 CAA          3.3030    -0.4880     0.0770 c3         1 4PL      -0.155400
      2 OAC          0.8800    -2.0940     0.1830 oh         1 4PL      -0.495100
      3 CAD          0.5930     1.9830    -0.0720 ca         1 4PL       0.326900
      4 CAE         -2.0030     1.5660    -0.0470 c5         1 4PL       0.209900
      5 NAF          1.7890     1.4030    -0.0390 nb         1 4PL      -0.628000
      6 OAG         -2.6660     0.3010     0.0320 os         1 4PL      -0.427100
      7 CAH         -1.8000    -0.7220     0.0900 c          1 4PL       0.682700
      8 CAI          1.9190     0.0860     0.0420 ca         1 4PL       0.268300
      9 CAJ         -0.5520     1.2170    -0.0270 ca         1 4PL      -0.125300
     10 CAK          0.7990    -0.7670     0.0970 ca         1 4PL       0.173100
     11 CAL         -0.4430    -0.1560     0.0560 ca         1 4PL      -0.209600
     12 HAA          3.5040    -1.0100     1.0160 hc         1 4PL       0.056367
     13 HAAA         3.4750    -1.1960    -0.7380 hc         1 4PL       0.056367
     14 HAAB         4.0360     0.3090    -0.0190 hc         1 4PL       0.056367
     15 HOAC         1.7960    -2.3930     0.2270 ho         1 4PL       0.478000
     16 HAD          0.5660     3.0640    -0.1360 h4         1 4PL       0.033100
     17 HAE         -2.3070     2.0700    -0.9650 h1         1 4PL       0.079700
     18 HAEA        -2.3040     2.1790     0.8040 h1         1 4PL       0.079700
     19 OAB         -2.1630    -1.8640     0.1550 o          1 4PL      -0.460000
@<TRIPOS>BOND
     1     1     8 1   
     2     1    12 1   
     3     1    13 1   
     4     1    14 1   
     5     2    10 1   
     6     2    15 1   
     7     3     5 ar  
     8     3     9 ar  
     9     3    16 1   
    10     4     6 1   
    11     4     9 1   
    12     4    17 1   
    13     4    18 1   
    14     5     8 ar  
    15     6     7 1   
    16     7    11 1   
    17     7    19 2   
    18     8    10 ar  
    19     9    11 ar  
    20    10    11 ar  
@<TRIPOS>SUBSTRUCTURE
     1 4PL         1 TEMP              0 ****  ****    0 ROOT
