@<TRIPOS>MOLECULE
4PN
   32    33     1     0     0
SMALL
abcg2


@<TRIPOS>ATOM
      1 C8          -1.2010    -0.1370    -1.4390 c6         1 4PN       0.170300
      2 C9          -1.1690     0.4450    -2.8470 c6         1 4PN      -0.075900
      3 C10         -0.0100    -0.1200    -3.6540 c6         1 4PN      -0.074400
      4 C11          1.2840     0.0660    -2.8760 c6         1 4PN      -0.075900
      5 C12          1.1550    -0.5010    -1.4710 c6         1 4PN       0.170300
      6 N7           0.0510     0.1040    -0.7370 n3         1 4PN      -0.723600
      7 C4           0.0630    -0.3190     0.6660 c6         1 4PN       0.191500
      8 C5           1.1910     0.3910     1.4240 c6         1 4PN      -0.076900
      9 C6           1.2120     0.0030     2.8940 c6         1 4PN       0.158800
     10 N1          -0.0630     0.3140     3.5100 n7         1 4PN      -0.858400
     11 C2          -1.1390    -0.4210     2.8740 c6         1 4PN       0.158800
     12 C3          -1.2500    -0.0470     1.4020 c6         1 4PN      -0.076900
     13 H81         -2.0210     0.3300    -0.8960 h1         1 4PN       0.027700
     14 H82         -1.4330    -1.2160    -1.5010 h1         1 4PN       0.027700
     15 H91         -1.0760     1.5330    -2.7780 hc         1 4PN       0.045200
     16 H92         -2.1240     0.2370    -3.3350 hc         1 4PN       0.045200
     17 H101        -0.1770    -1.1880    -3.8300 hc         1 4PN       0.037700
     18 H102         0.0520     0.3550    -4.6350 hc         1 4PN       0.037700
     19 H111         2.1190    -0.4230    -3.3830 hc         1 4PN       0.045200
     20 H112         1.5290     1.1310    -2.8120 hc         1 4PN       0.045200
     21 H121         2.0870    -0.3310    -0.9330 h1         1 4PN       0.027700
     22 H122         1.0280    -1.5980    -1.5340 h1         1 4PN       0.027700
     23 H4           0.2430    -1.4100     0.7290 h1         1 4PN       0.014700
     24 H51          2.1670     0.1600     0.9950 hc         1 4PN       0.052700
     25 H52          1.0460     1.4710     1.3310 hc         1 4PN       0.052700
     26 H61          1.4700    -1.0670     2.9770 h1         1 4PN       0.027700
     27 H62          2.0020     0.5560     3.4080 h1         1 4PN       0.027700
     28 H1          -0.0310     0.0830     4.4940 hn         1 4PN       0.409000
     29 H21         -1.0040    -1.5140     2.9510 h1         1 4PN       0.027700
     30 H22         -2.0780    -0.1840     3.3780 h1         1 4PN       0.027700
     31 H31         -1.5120     1.0130     1.3150 hc         1 4PN       0.052700
     32 H32         -2.0710    -0.6220     0.9710 hc         1 4PN       0.052700
@<TRIPOS>BOND
     1     1     2 1   
     2     1     6 1   
     3     1    13 1   
     4     1    14 1   
     5     2     3 1   
     6     2    15 1   
     7     2    16 1   
     8     3     4 1   
     9     3    17 1   
    10     3    18 1   
    11     4     5 1   
    12     4    19 1   
    13     4    20 1   
    14     5     6 1   
    15     5    21 1   
    16     5    22 1   
    17     6     7 1   
    18     7     8 1   
    19     7    12 1   
    20     7    23 1   
    21     8     9 1   
    22     8    24 1   
    23     8    25 1   
    24     9    10 1   
    25     9    26 1   
    26     9    27 1   
    27    10    11 1   
    28    10    28 1   
    29    11    12 1   
    30    11    29 1   
    31    11    30 1   
    32    12    31 1   
    33    12    32 1   
@<TRIPOS>SUBSTRUCTURE
     1 4PN         1 TEMP              0 ****  ****    0 ROOT
