@<TRIPOS>MOLECULE
4PN
   32    33     1     0     0
SMALL
No Charge or Current Charge


@<TRIPOS>ATOM
      1 C8          -1.2180    -0.2720    -1.4910 c6         1 4PN       0.170300
      2 C9          -1.2520     0.2410    -2.9520 c6         1 4PN      -0.075900
      3 C10          0.0110    -0.1910    -3.7240 c6         1 4PN      -0.074400
      4 C11          1.2650     0.2640    -2.9530 c6         1 4PN      -0.075900
      5 C12          1.2410    -0.2490    -1.4920 c6         1 4PN       0.170300
      6 N7           0.0080     0.1750    -0.7490 n3         1 4PN      -0.723600
      7 C4           0.0130    -0.2930     0.6900 c6         1 4PN       0.191500
      8 C5           1.2740     0.1960     1.4740 c6         1 4PN      -0.076900
      9 C6           1.2360    -0.2180     2.9630 c6         1 4PN       0.158800
     10 N1           0.0080     0.2640     3.6260 n7         1 4PN      -0.858400
     11 C2          -1.2110    -0.2410     2.9640 c6         1 4PN       0.158800
     12 C3          -1.2570     0.1720     1.4750 c6         1 4PN      -0.076900
     13 H81         -2.1310     0.1030    -1.0130 h1         1 4PN       0.027700
     14 H82         -1.2780    -1.3710    -1.4960 h1         1 4PN       0.027700
     15 H91         -1.3330     1.3360    -2.9540 hc         1 4PN       0.045200
     16 H92         -2.1490    -0.1410    -3.4580 hc         1 4PN       0.045200
     17 H101         0.0210    -1.2830    -3.8450 hc         1 4PN       0.037700
     18 H102         0.0060     0.2420    -4.7340 hc         1 4PN       0.037700
     19 H111         2.1690    -0.1000    -3.4590 hc         1 4PN       0.045200
     20 H112         1.3250     1.3610    -2.9540 hc         1 4PN       0.045200
     21 H121         2.1480     0.1430    -1.0140 h1         1 4PN       0.027700
     22 H122         1.3230    -1.3460    -1.4960 h1         1 4PN       0.027700
     23 H4           0.0230    -1.3940     0.7040 h1         1 4PN       0.014700
     24 H51          2.1920    -0.2270     1.0500 hc         1 4PN       0.052700
     25 H52          1.3610     1.2880     1.3980 hc         1 4PN       0.052700
     26 H61          1.2870    -1.3140     3.0400 h1         1 4PN       0.027700
     27 H62          2.1160     0.1920     3.4820 h1         1 4PN       0.027700
     28 H1           0.0120    -0.0550     4.6040 hn         1 4PN       0.409000
     29 H21         -1.2400    -1.3380     3.0410 h1         1 4PN       0.027700
     30 H22         -2.0980     0.1530     3.4830 h1         1 4PN       0.027700
     31 H31         -1.3650     1.2630     1.3980 hc         1 4PN       0.052700
     32 H32         -2.1670    -0.2680     1.0510 hc         1 4PN       0.052700
@<TRIPOS>BOND
     1     1     2 1   
     2     1     6 1   
     3     1    13 1   
     4     1    14 1   
     5     2     3 1   
     6     2    15 1   
     7     2    16 1   
     8     3     4 1   
     9     3    17 1   
    10     3    18 1   
    11     4     5 1   
    12     4    19 1   
    13     4    20 1   
    14     5     6 1   
    15     5    21 1   
    16     5    22 1   
    17     6     7 1   
    18     7     8 1   
    19     7    12 1   
    20     7    23 1   
    21     8     9 1   
    22     8    24 1   
    23     8    25 1   
    24     9    10 1   
    25     9    26 1   
    26     9    27 1   
    27    10    11 1   
    28    10    28 1   
    29    11    12 1   
    30    11    29 1   
    31    11    30 1   
    32    12    31 1   
    33    12    32 1   
@<TRIPOS>SUBSTRUCTURE
     1 4PN         1 TEMP              0 ****  ****    0 ROOT
