@<TRIPOS>MOLECULE
4PO
   28    28     1     0     0
SMALL
bcc


@<TRIPOS>ATOM
      1 C1          -3.2910    -0.8560     1.3410 c3         1 4PO      -0.098767
      2 N1          -1.6200     0.4000    -0.0030 nh         1 4PO       0.096600
      3 O1          -1.4140     1.6290    -0.1600 o          1 4PO      -0.314000
      4 C2          -3.3290    -0.9330    -1.1790 c3         1 4PO      -0.098767
      5 N2           3.5410    -0.0250    -0.0700 na         1 4PO       0.229600
      6 O2           4.8050     0.0770    -0.1160 o          1 4PO      -0.325000
      7 C3          -3.9810     1.1480     0.0340 c3         1 4PO      -0.098767
      8 C4          -3.0680    -0.0680     0.0520 c3         1 4PO       0.005700
      9 C5          -0.6780    -0.4930     0.0910 ce         1 4PO       0.070800
     10 C6           0.7400    -0.2500     0.0300 ca         1 4PO      -0.128900
     11 C7           1.3760     0.9810    -0.1760 ca         1 4PO      -0.088500
     12 C8           2.7480     1.0610    -0.2210 ca         1 4PO      -0.189300
     13 C9           2.9500    -1.2290     0.1330 ca         1 4PO      -0.189300
     14 C10          1.5870    -1.3560     0.1830 ca         1 4PO      -0.088500
     15 H1          -3.0370    -0.2580     2.2170 hc         1 4PO       0.054589
     16 H1A         -4.3440    -1.1260     1.4140 hc         1 4PO       0.054589
     17 H1B         -2.7150    -1.7800     1.3770 hc         1 4PO       0.054589
     18 H2          -4.3750    -1.2380    -1.1900 hc         1 4PO       0.054589
     19 H2A         -3.1310    -0.3800    -2.0980 hc         1 4PO       0.054589
     20 H2B         -2.7200    -1.8380    -1.1860 hc         1 4PO       0.054589
     21 H3          -3.8260     1.7970     0.8950 hc         1 4PO       0.054589
     22 H3A         -3.8730     1.7400    -0.8730 hc         1 4PO       0.054589
     23 H3B         -5.0080     0.7860     0.0730 hc         1 4PO       0.054589
     24 H5          -1.0000    -1.5150     0.2240 h4         1 4PO       0.022800
     25 H7           0.8180     1.8920    -0.3080 ha         1 4PO       0.165000
     26 H8           3.2680     1.9930    -0.3820 h4         1 4PO       0.185000
     27 H9           3.6230    -2.0650     0.2500 h4         1 4PO       0.185000
     28 H10          1.1810    -2.3450     0.3490 ha         1 4PO       0.165000
@<TRIPOS>BOND
     1     1     8 1   
     2     1    15 1   
     3     1    16 1   
     4     1    17 1   
     5     2     3 1   
     6     2     8 1   
     7     2     9 2   
     8     4     8 1   
     9     4    18 1   
    10     4    19 1   
    11     4    20 1   
    12     5     6 1   
    13     5    12 1   
    14     5    13 2   
    15     7     8 1   
    16     7    21 1   
    17     7    22 1   
    18     7    23 1   
    19     9    10 1   
    20     9    24 1   
    21    10    11 ar  
    22    10    14 ar  
    23    11    12 ar  
    24    11    25 1   
    25    12    26 1   
    26    13    14 ar  
    27    13    27 1   
    28    14    28 1   
@<TRIPOS>SUBSTRUCTURE
     1 4PO         1 TEMP              0 ****  ****    0 ROOT
