@<TRIPOS>MOLECULE
4PO
   28    28     1     0     0
SMALL
No Charge or Current Charge


@<TRIPOS>ATOM
      1 C1          -3.7270    -0.9000     1.2480 c3         1 4PO      -0.098767
      2 N1          -1.6300     0.3160     0.6380 nh         1 4PO       0.257300
      3 O1          -1.4470     1.4940     1.1060 o          1 4PO      -0.504000
      4 C2          -2.9780    -0.8080    -1.1660 c3         1 4PO      -0.098767
      5 N2           3.5120     0.0300    -0.4830 na         1 4PO       0.470300
      6 O2           4.6960     0.2120    -0.7910 o          1 4PO      -0.515000
      7 C3          -3.8980     1.2440    -0.0600 c3         1 4PO      -0.098767
      8 C4          -3.0190    -0.0240     0.1790 c3         1 4PO       0.035000
      9 C5          -0.6160    -0.6530     0.6110 ce         1 4PO       0.070800
     10 C6           0.8060    -0.3810     0.2300 ca         1 4PO      -0.128900
     11 C7           1.2280     0.8550    -0.3120 ca         1 4PO      -0.070500
     12 C8           2.5790     1.0430    -0.6610 ca         1 4PO      -0.222000
     13 C9           3.1010    -1.1920     0.0340 ca         1 4PO      -0.171300
     14 C10          1.7570    -1.4100     0.3920 ca         1 4PO      -0.070500
     15 H1          -3.7820    -0.3720     2.2080 hc         1 4PO       0.054589
     16 H1A         -4.7500    -1.1490     0.9400 hc         1 4PO       0.054589
     17 H1B         -3.1890    -1.8410     1.4120 hc         1 4PO       0.054589
     18 H2          -3.9910    -1.0100    -1.5350 hc         1 4PO       0.054589
     19 H2A         -2.4480    -0.2320    -1.9350 hc         1 4PO       0.054589
     20 H2B         -2.4720    -1.7750    -1.0580 hc         1 4PO       0.054589
     21 H3          -4.0370     1.8140     0.8670 hc         1 4PO       0.054589
     22 H3A         -3.4350     1.9070    -0.8020 hc         1 4PO       0.054589
     23 H3B         -4.8940     0.9710    -0.4300 hc         1 4PO       0.054589
     24 H5          -0.9250    -1.6970     0.6820 h4         1 4PO       0.022800
     25 H7           0.5230     1.6670    -0.4760 ha         1 4PO       0.147000
     26 H8           2.9400     1.9780    -1.0840 h4         1 4PO       0.167000
     27 H9           3.8610    -1.9620     0.1480 h4         1 4PO       0.167000
     28 H10          1.4580    -2.3750     0.7980 ha         1 4PO       0.147000
@<TRIPOS>BOND
     1     1     8 1   
     2     1    15 1   
     3     1    16 1   
     4     1    17 1   
     5     2     3 1   
     6     2     8 1   
     7     2     9 2   
     8     4     8 1   
     9     4    18 1   
    10     4    19 1   
    11     4    20 1   
    12     5     6 1   
    13     5    12 1   
    14     5    13 2   
    15     7     8 1   
    16     7    21 1   
    17     7    22 1   
    18     7    23 1   
    19     9    10 1   
    20     9    24 1   
    21    10    11 ar  
    22    10    14 ar  
    23    11    12 ar  
    24    11    25 1   
    25    12    26 1   
    26    13    14 ar  
    27    13    27 1   
    28    14    28 1   
@<TRIPOS>SUBSTRUCTURE
     1 4PO         1 TEMP              0 ****  ****    0 ROOT
