@<TRIPOS>MOLECULE
4PP
   52    54     1     0     0
SMALL
No Charge or Current Charge


@<TRIPOS>ATOM
      1 C1C         -2.8250    -0.2500    -0.9690 c          1 4PP       0.722000
      2 O2          -3.4570     0.7730    -1.1900 o          1 4PP      -0.720500
      3 O3          -3.3320    -1.3630    -0.9620 o          1 4PP      -0.720500
      4 N1P          2.1990    -0.0390    -9.1230 nb         1 4PP      -0.728000
      5 C2P          1.4280    -1.1240    -8.8930 ca         1 4PP       0.367900
      6 C3P          0.7820    -1.3510    -7.6740 ca         1 4PP      -0.265500
      7 C4P          0.9350    -0.4230    -6.6470 ca         1 4PP       0.388000
      8 C5P          1.7300     0.7020    -6.8730 ca         1 4PP      -0.265500
      9 C6P          2.3420     0.8550    -8.1210 ca         1 4PP       0.367900
     10 N1           0.2970    -0.6400    -5.4310 nu         1 4PP      -0.964200
     11 C1          -1.3150    -0.1390    -0.6460 c3         1 4PP      -0.171400
     12 C2          -0.4980     0.4700    -1.8190 c3         1 4PP      -0.035400
     13 C3          -0.5100    -0.3920    -3.1030 c3         1 4PP      -0.091400
     14 C4           0.3370     0.2170    -4.2370 c3         1 4PP       0.222800
     15 N1A          2.1780     1.3250     7.5940 n2         1 4PP      -0.862100
     16 N2A          2.6950    -0.7670     8.1980 nv         1 4PP      -1.036200
     17 C1A          1.9480     0.0840     7.4750 ce         1 4PP       0.666800
     18 C1D         -0.6750     1.9330     3.1320 ca         1 4PP      -0.122000
     19 C2D         -0.9970     2.6670     1.9800 ca         1 4PP      -0.125000
     20 C3D         -1.2080     2.0070     0.7590 ca         1 4PP      -0.086000
     21 C4D         -1.0960     0.6040     0.6790 ca         1 4PP      -0.012300
     22 C5D         -0.7790    -0.1230     1.8450 ca         1 4PP      -0.099000
     23 C6D         -0.5610     0.5210     3.0890 cp         1 4PP      -0.068000
     24 C1B         -0.4790    -2.2740     5.7030 ca         1 4PP      -0.121000
     25 C2B         -0.7920    -1.5410     4.5480 ca         1 4PP      -0.087000
     26 C3B         -0.2220    -0.2660     4.3190 cp         1 4PP      -0.002000
     27 C4B          0.6790     0.2440     5.2890 ca         1 4PP      -0.094000
     28 C5B          1.0220    -0.4910     6.4500 ca         1 4PP      -0.207900
     29 C6B          0.4150    -1.7530     6.6510 ca         1 4PP      -0.100000
     30 H5P          1.8810     1.4530    -6.1060 ha         1 4PP       0.118500
     31 H6P          2.9680     1.7220    -8.3300 h4         1 4PP       0.001100
     32 H1N         -0.2590    -1.4940    -5.3730 hn         1 4PP       0.496000
     33 H1          -0.9450    -1.1630    -0.5130 hc         1 4PP       0.040700
     34 H21         -0.8770     1.4700    -2.0620 hc         1 4PP       0.027200
     35 H22          0.5420     0.5980    -1.4930 hc         1 4PP       0.027200
     36 H31         -0.1290    -1.3940    -2.8670 hc         1 4PP       0.056700
     37 H32         -1.5430    -0.5110    -3.4520 hc         1 4PP       0.056700
     38 H41         -0.0510     1.2160    -4.4810 h1         1 4PP       0.036700
     39 H42          1.3740     0.3300    -3.8920 h1         1 4PP       0.036700
     40 HN1          1.4990     1.8220     7.0040 hn         1 4PP       0.392400
     41 HN21         3.5180    -0.3400     8.6020 hn         1 4PP       0.463500
     42 HN22         2.8230    -1.6850     7.7910 hn         1 4PP       0.463500
     43 H1D         -0.5300     2.4630     4.0700 ha         1 4PP       0.094000
     44 H2D         -1.0890     3.7490     2.0350 ha         1 4PP       0.098000
     45 H3D         -1.4670     2.5900    -0.1210 ha         1 4PP       0.138000
     46 H5D         -0.6840    -1.2040     1.7830 ha         1 4PP       0.108000
     47 H1B         -0.9390    -3.2450     5.8690 ha         1 4PP       0.110000
     48 H2B         -1.4990    -1.9570     3.8350 ha         1 4PP       0.132000
     49 H4B          1.1380     1.2130     5.1120 ha         1 4PP       0.118000
     50 H6B          0.6250    -2.3320     7.5470 ha         1 4PP       0.112000
     51 H2P          1.3270    -1.8310    -9.7160 h4         1 4PP       0.001100
     52 H3P          0.1730    -2.2390    -7.5410 ha         1 4PP       0.118500
@<TRIPOS>BOND
     1     1     2 1   
     2     1     3 1   
     3     1    11 1   
     4     4     5 ar  
     5     4     9 ar  
     6     5     6 ar  
     7     5    51 1   
     8     6     7 ar  
     9     6    52 1   
    10     7     8 ar  
    11     7    10 1   
    12     8     9 ar  
    13     8    30 1   
    14     9    31 1   
    15    10    14 1   
    16    10    32 1   
    17    11    12 1   
    18    11    21 1   
    19    11    33 1   
    20    12    13 1   
    21    12    34 1   
    22    12    35 1   
    23    13    14 1   
    24    13    36 1   
    25    13    37 1   
    26    14    38 1   
    27    14    39 1   
    28    15    17 2   
    29    15    40 1   
    30    16    17 1   
    31    16    41 1   
    32    16    42 1   
    33    17    28 1   
    34    18    19 ar  
    35    18    23 ar  
    36    18    43 1   
    37    19    20 ar  
    38    19    44 1   
    39    20    21 ar  
    40    20    45 1   
    41    21    22 ar  
    42    22    23 ar  
    43    22    46 1   
    44    23    26 1   
    45    24    25 ar  
    46    24    29 ar  
    47    24    47 1   
    48    25    26 ar  
    49    25    48 1   
    50    26    27 ar  
    51    27    28 ar  
    52    27    49 1   
    53    28    29 ar  
    54    29    50 1   
@<TRIPOS>SUBSTRUCTURE
     1 4PP         1 TEMP              0 ****  ****    0 ROOT
