@<TRIPOS>MOLECULE
4PP
   52    54     1     0     0
SMALL
bcc


@<TRIPOS>ATOM
      1 C1C         -3.0340    -0.0420    -1.0000 c          1 4PP       0.932600
      2 O2          -3.4010     0.9320    -1.6850 o          1 4PP      -0.825800
      3 O3          -3.7590    -0.9330    -0.5200 o          1 4PP      -0.825800
      4 N1P          2.6290    -0.1810    -8.6560 nb         1 4PP      -0.728000
      5 C2P          1.5950    -1.0250    -8.6380 ca         1 4PP       0.433200
      6 C3P          0.7400    -1.1930    -7.5720 ca         1 4PP      -0.348800
      7 C4P          0.9390    -0.4380    -6.4000 ca         1 4PP       0.249600
      8 C5P          2.0230     0.4570    -6.4160 ca         1 4PP      -0.348800
      9 C6P          2.8120     0.5320    -7.5490 ca         1 4PP       0.433200
     10 N1           0.1300    -0.5830    -5.3330 nu         1 4PP      -0.770600
     11 C1          -1.5220    -0.1340    -0.6590 c3         1 4PP      -0.171400
     12 C2          -0.6110     0.4200    -1.7530 c3         1 4PP      -0.035400
     13 C3          -0.7110    -0.3600    -3.0560 c3         1 4PP      -0.091400
     14 C4           0.2630     0.1580    -4.1010 c3         1 4PP       0.222800
     15 N1A          2.0820     1.4030     7.4830 n2         1 4PP      -0.862100
     16 N2A          3.0150    -0.6820     7.6880 nv         1 4PP      -0.925800
     17 C1A          2.1050     0.1720     7.1410 ce         1 4PP       0.666800
     18 C1D         -0.8650     1.8770     3.0950 ca         1 4PP      -0.140000
     19 C2D         -1.2940     2.5910     1.9850 ca         1 4PP      -0.143000
     20 C3D         -1.5140     1.9500     0.7750 ca         1 4PP      -0.104000
     21 C4D         -1.3000     0.5760     0.6540 ca         1 4PP      -0.012300
     22 C5D         -0.8740    -0.1270     1.7750 ca         1 4PP      -0.117000
     23 C6D         -0.6510     0.5020     3.0020 cp         1 4PP      -0.068000
     24 C1B         -0.2140    -2.3090     5.4800 ca         1 4PP      -0.139000
     25 C2B         -0.6550    -1.5780     4.3880 ca         1 4PP      -0.105000
     26 C3B         -0.1990    -0.2770     4.1720 cp         1 4PP      -0.002000
     27 C4B          0.7020     0.2690     5.0850 ca         1 4PP      -0.112000
     28 C5B          1.1500    -0.4580     6.1840 ca         1 4PP      -0.207900
     29 C6B          0.6910    -1.7590     6.3760 ca         1 4PP      -0.118000
     30 H5P          2.2550     1.0870    -5.5690 ha         1 4PP       0.136500
     31 H6P          3.6500     1.2220    -7.5550 h4         1 4PP       0.001100
     32 H1N         -0.6510    -1.2130    -5.4190 hn         1 4PP       0.440800
     33 H1          -1.2720    -1.1890    -0.5070 hc         1 4PP       0.040700
     34 H21         -0.8480     1.4710    -1.9360 hc         1 4PP       0.027200
     35 H22          0.4240     0.3920    -1.3970 hc         1 4PP       0.027200
     36 H31         -0.5070    -1.4190    -2.8700 hc         1 4PP       0.056700
     37 H32         -1.7310    -0.2930    -3.4450 hc         1 4PP       0.056700
     38 H41          0.0880     1.2270    -4.2720 h1         1 4PP       0.036700
     39 H42          1.2870     0.0630    -3.7220 h1         1 4PP       0.036700
     40 HN1          1.2860     1.8750     7.0720 hn         1 4PP       0.392400
     41 HN21         3.7470    -0.2600     8.2370 hn         1 4PP       0.408300
     42 HN22         3.3120    -1.4770     7.1450 hn         1 4PP       0.408300
     43 H1D         -0.7170     2.3900     4.0370 ha         1 4PP       0.112000
     44 H2D         -1.4670     3.6560     2.0700 ha         1 4PP       0.116000
     45 H3D         -1.8630     2.5170    -0.0790 ha         1 4PP       0.156000
     46 H5D         -0.6860    -1.1910     1.6820 ha         1 4PP       0.126000
     47 H1B         -0.5860    -3.3130     5.6400 ha         1 4PP       0.128000
     48 H2B         -1.3720    -2.0210     3.7080 ha         1 4PP       0.150000
     49 H4B          1.0940     1.2640     4.9110 ha         1 4PP       0.136000
     50 H6B          1.0220    -2.3370     7.2280 ha         1 4PP       0.130000
     51 H2P          1.4350    -1.6110    -9.5380 h4         1 4PP       0.001100
     52 H3P         -0.0750    -1.9030    -7.6380 ha         1 4PP       0.136500
@<TRIPOS>BOND
     1     1     2 1   
     2     1     3 1   
     3     1    11 1   
     4     4     5 ar  
     5     4     9 ar  
     6     5     6 ar  
     7     5    51 1   
     8     6     7 ar  
     9     6    52 1   
    10     7     8 ar  
    11     7    10 1   
    12     8     9 ar  
    13     8    30 1   
    14     9    31 1   
    15    10    14 1   
    16    10    32 1   
    17    11    12 1   
    18    11    21 1   
    19    11    33 1   
    20    12    13 1   
    21    12    34 1   
    22    12    35 1   
    23    13    14 1   
    24    13    36 1   
    25    13    37 1   
    26    14    38 1   
    27    14    39 1   
    28    15    17 2   
    29    15    40 1   
    30    16    17 1   
    31    16    41 1   
    32    16    42 1   
    33    17    28 1   
    34    18    19 ar  
    35    18    23 ar  
    36    18    43 1   
    37    19    20 ar  
    38    19    44 1   
    39    20    21 ar  
    40    20    45 1   
    41    21    22 ar  
    42    22    23 ar  
    43    22    46 1   
    44    23    26 1   
    45    24    25 ar  
    46    24    29 ar  
    47    24    47 1   
    48    25    26 ar  
    49    25    48 1   
    50    26    27 ar  
    51    27    28 ar  
    52    27    49 1   
    53    28    29 ar  
    54    29    50 1   
@<TRIPOS>SUBSTRUCTURE
     1 4PP         1 TEMP              0 ****  ****    0 ROOT
