@<TRIPOS>MOLECULE
4PQ
   27    28     1     0     0
SMALL
bcc


@<TRIPOS>ATOM
      1 N            8.4990     5.8360    83.6960 n8         1 4PQ      -0.888800
      2 CA           7.3210     6.2020    84.4680 c3         1 4PQ       0.016500
      3 CB           6.1220     5.3530    84.0230 c3         1 4PQ       0.018800
      4 CG           6.2660     3.8930    84.3150 cc         1 4PQ      -0.113400
      5 CD1          5.9020     3.2470    85.4670 cd         1 4PQ      -0.083100
      6 NE1          6.1920     1.9160    85.3820 na         1 4PQ      -0.184400
      7 CE2          6.7520     1.6590    84.1620 ca         1 4PQ      -0.086200
      8 CZ2          7.2040     0.4700    83.5970 ca         1 4PQ      -0.120000
      9 CH2          7.7280     0.5150    82.3200 ca         1 4PQ      -0.210000
     10 CZ3          7.8040     1.7270    81.6060 ca         1 4PQ       0.075100
     11 CE3          7.3580     2.9090    82.1680 ca         1 4PQ      -0.099000
     12 CD2          6.8200     2.8830    83.4610 ca         1 4PQ      -0.053800
     13 C            7.4760     6.1550    86.0120 c          1 4PQ       0.903600
     14 OXT          8.5840     5.8160    86.4700 o          1 4PQ      -0.844800
     15 O            6.4640     6.4820    86.6690 o          1 4PQ      -0.844800
     16 OAD          8.3200     1.7740    80.3510 oh         1 4PQ      -0.509100
     17 H1           9.2820     6.3880    84.0260 hn         1 4PQ       0.329300
     18 H2           8.7520     4.8830    83.9340 hn         1 4PQ       0.329300
     19 H4           7.0760     7.2410    84.2070 h1         1 4PQ       0.037700
     20 H5           5.9730     5.4950    82.9490 hc         1 4PQ       0.036200
     21 H6           5.2280     5.7380    84.5130 hc         1 4PQ       0.036200
     22 H7           5.4480     3.6540    86.3570 h4         1 4PQ       0.182000
     23 H8           6.0060     1.2360    86.0990 hn         1 4PQ       0.285700
     24 H9           7.1490    -0.4680    84.1350 ha         1 4PQ       0.115000
     25 H10          8.0850    -0.4000    81.8600 ha         1 4PQ       0.109000
     26 H11          7.4310     3.8380    81.6140 ha         1 4PQ       0.159000
     27 H13          8.5900     0.8940    80.0700 ho         1 4PQ       0.405000
@<TRIPOS>BOND
     1     1     2 1   
     2     1    17 1   
     3     1    18 1   
     4     2     3 1   
     5     2    13 1   
     6     2    19 1   
     7     3     4 1   
     8     3    20 1   
     9     3    21 1   
    10     4     5 2   
    11     4    12 1   
    12     5     6 1   
    13     5    22 1   
    14     6     7 1   
    15     6    23 1   
    16     7     8 ar  
    17     7    12 ar  
    18     8     9 ar  
    19     8    24 1   
    20     9    10 ar  
    21     9    25 1   
    22    10    11 ar  
    23    10    16 1   
    24    11    12 ar  
    25    11    26 1   
    26    13    14 1   
    27    13    15 1   
    28    16    27 1   
@<TRIPOS>SUBSTRUCTURE
     1 4PQ         1 TEMP              0 ****  ****    0 ROOT
