@<TRIPOS>MOLECULE
4PR
   80    82     1     0     0
SMALL
abcg2


@<TRIPOS>ATOM
      1 C1          73.5970    95.6190   162.5430 c3         1 4PR      -0.095100
      2 C2          75.0250    95.1080   162.3690 c3         1 4PR      -0.074400
      3 C3          75.9530    95.5620   163.4940 c3         1 4PR      -0.076400
      4 C4          77.3600    94.9840   163.3730 c3         1 4PR      -0.103400
      5 C5          78.3090    95.4800   164.4720 c3         1 4PR       0.095700
      6 N1          78.5650    96.9030   164.3380 ns         1 4PR      -0.490900
      7 C6          77.9980    97.8240   165.1440 c          1 4PR       0.636100
      8 O1          77.3780    97.5920   166.1700 o          1 4PR      -0.531000
      9 O2          78.2180    99.0700   164.6610 os         1 4PR      -0.473100
     10 C7          77.5220   100.1570   165.3110 c5         1 4PR       0.179300
     11 C8          76.0610   100.1480   164.8810 c5         1 4PR       0.091000
     12 N2          76.0890   100.8510   163.5980 n          1 4PR      -0.435800
     13 C9          77.3700   101.5240   163.3600 c5         1 4PR       0.107000
     14 C10         78.0740   101.4710   164.7290 c5         1 4PR      -0.061000
     15 C11         77.6040   102.6350   165.6130 c3         1 4PR      -0.081600
     16 C12         79.5940   101.5040   164.6010 c3         1 4PR      -0.081600
     17 C13         75.1290   100.6280   162.6700 c          1 4PR       0.661100
     18 O3          74.1180    99.9570   162.9050 o          1 4PR      -0.630100
     19 N3          75.3420   101.2070   161.4380 ns         1 4PR      -0.416100
     20 C14         74.5120   100.9290   160.3430 cc         1 4PR      -0.087400
     21 C15         74.3380    99.6720   159.6870 cc         1 4PR       0.297300
     22 C16         74.9750    98.3760   160.0420 c3         1 4PR      -0.137400
     23 N4          73.5150    99.7820   158.6780 nd         1 4PR      -0.357300
     24 O4          73.1320   101.1440   158.6400 os         1 4PR      -0.096700
     25 C17         73.7340   101.8020   159.6490 cd         1 4PR       0.201300
     26 C18         73.4710   103.2490   159.7970 c3         1 4PR      -0.135400
     27 C19         79.6360    94.7070   164.5140 c3         1 4PR       0.074300
     28 O5          80.3870    94.8180   163.3100 oh         1 4PR      -0.660000
     29 C20         79.3770    93.2550   164.9430 c          1 4PR       0.567100
     30 O6          78.6990    93.0170   165.9430 o          1 4PR      -0.593100
     31 N5          79.9360    92.3110   164.1780 ns         1 4PR      -0.498900
     32 C21         79.7060    90.8860   164.3820 c3         1 4PR       0.163000
     33 C22         80.7950    90.0940   163.6600 c3         1 4PR      -0.101100
     34 C23         78.3170    90.4640   163.9300 ca         1 4PR      -0.097300
     35 C24         77.6450    89.4550   164.6180 ca         1 4PR      -0.099000
     36 C25         76.3910    89.0240   164.1980 ca         1 4PR      -0.107500
     37 C26         75.7900    89.6040   163.0850 ca         1 4PR      -0.105000
     38 C27         76.4550    90.6130   162.3940 ca         1 4PR      -0.107500
     39 C28         77.7120    91.0370   162.8140 ca         1 4PR      -0.099000
     40 H11         72.9590    95.3170   161.7100 hc         1 4PR       0.039367
     41 H12         73.5750    96.7100   162.6020 hc         1 4PR       0.039367
     42 H13         73.1540    95.2310   163.4640 hc         1 4PR       0.039367
     43 H21A        75.4280    95.4550   161.4120 hc         1 4PR       0.032200
     44 H22         75.0190    94.0140   162.3230 hc         1 4PR       0.032200
     45 H31         75.5290    95.2660   164.4590 hc         1 4PR       0.051200
     46 H32         75.9990    96.6560   163.4970 hc         1 4PR       0.051200
     47 H41         77.7710    95.2410   162.3900 hc         1 4PR       0.044200
     48 H42         77.3050    93.8940   163.4180 hc         1 4PR       0.044200
     49 H5          77.8360    95.3380   165.4410 h1         1 4PR       0.120700
     50 HN1         78.9630    97.2360   163.4730 hn         1 4PR       0.322500
     51 H7          77.6540   100.0780   166.3870 h1         1 4PR       0.089700
     52 H81         75.4360   100.6660   165.6120 h1         1 4PR       0.075700
     53 H82         75.6740    99.1400   164.7610 h1         1 4PR       0.075700
     54 H91         77.2250   102.5550   163.0290 h1         1 4PR       0.046700
     55 H92         77.9510   100.9920   162.6020 h1         1 4PR       0.046700
     56 H111        76.5170   102.6900   165.6770 hc         1 4PR       0.044533
     57 H112        77.9630   103.5780   165.1970 hc         1 4PR       0.044533
     58 H113        78.0020   102.5340   166.6240 hc         1 4PR       0.044533
     59 H121        80.0620   101.4290   165.5840 hc         1 4PR       0.044533
     60 H122        79.9060   102.4500   164.1520 hc         1 4PR       0.044533
     61 H123        79.9640   100.6910   163.9790 hc         1 4PR       0.044533
     62 HN3         76.1830   101.7340   161.2710 hn         1 4PR       0.319500
     63 H161        74.6420    98.0560   161.0290 hc         1 4PR       0.060700
     64 H162        76.0600    98.4900   160.0850 hc         1 4PR       0.060700
     65 H163        74.7250    97.6080   159.3120 hc         1 4PR       0.060700
     66 H181        72.3980   103.4430   159.8440 hc         1 4PR       0.064033
     67 H182        73.8790   103.8080   158.9520 hc         1 4PR       0.064033
     68 H183        73.9390   103.6110   160.7120 hc         1 4PR       0.064033
     69 H19         80.2600    95.1510   165.2910 h1         1 4PR       0.111700
     70 HO5         79.8100    94.6520   162.5530 ho         1 4PR       0.442000
     71 HN5         80.4730    92.6150   163.3800 hn         1 4PR       0.323500
     72 H21         79.7800    90.6950   165.4540 h1         1 4PR       0.078700
     73 H221        80.6460    89.0270   163.8200 hc         1 4PR       0.046367
     74 H222        81.7820    90.3710   164.0340 hc         1 4PR       0.046367
     75 H223        80.7570    90.2870   162.5850 hc         1 4PR       0.046367
     76 H24         78.1050    89.0080   165.4920 ha         1 4PR       0.107500
     77 H25         75.8790    88.2430   164.7460 ha         1 4PR       0.113000
     78 H26         74.8100    89.2760   162.7610 ha         1 4PR       0.114000
     79 H27         75.9940    91.0740   161.5300 ha         1 4PR       0.113000
     80 H28         78.2180    91.8260   162.2740 ha         1 4PR       0.107500
@<TRIPOS>BOND
     1     1     2 1   
     2     1    40 1   
     3     1    41 1   
     4     1    42 1   
     5     2     3 1   
     6     2    43 1   
     7     2    44 1   
     8     3     4 1   
     9     3    45 1   
    10     3    46 1   
    11     4     5 1   
    12     4    47 1   
    13     4    48 1   
    14     5     6 1   
    15     5    27 1   
    16     5    49 1   
    17     6     7 1   
    18     6    50 1   
    19     7     8 2   
    20     7     9 1   
    21     9    10 1   
    22    10    11 1   
    23    10    14 1   
    24    10    51 1   
    25    11    12 1   
    26    11    52 1   
    27    11    53 1   
    28    12    13 1   
    29    12    17 1   
    30    13    14 1   
    31    13    54 1   
    32    13    55 1   
    33    14    15 1   
    34    14    16 1   
    35    15    56 1   
    36    15    57 1   
    37    15    58 1   
    38    16    59 1   
    39    16    60 1   
    40    16    61 1   
    41    17    18 2   
    42    17    19 1   
    43    19    20 1   
    44    19    62 1   
    45    20    21 1   
    46    20    25 2   
    47    21    22 1   
    48    21    23 2   
    49    22    63 1   
    50    22    64 1   
    51    22    65 1   
    52    23    24 1   
    53    24    25 1   
    54    25    26 1   
    55    26    66 1   
    56    26    67 1   
    57    26    68 1   
    58    27    28 1   
    59    27    29 1   
    60    27    69 1   
    61    28    70 1   
    62    29    30 2   
    63    29    31 1   
    64    31    32 1   
    65    31    71 1   
    66    32    33 1   
    67    32    34 1   
    68    32    72 1   
    69    33    73 1   
    70    33    74 1   
    71    33    75 1   
    72    34    35 ar  
    73    34    39 ar  
    74    35    36 ar  
    75    35    76 1   
    76    36    37 ar  
    77    36    77 1   
    78    37    38 ar  
    79    37    78 1   
    80    38    39 ar  
    81    38    79 1   
    82    39    80 1   
@<TRIPOS>SUBSTRUCTURE
     1 4PR         1 TEMP              0 ****  ****    0 ROOT
