@<TRIPOS>MOLECULE
4PR
   80    82     1     0     0
SMALL
No Charge or Current Charge


@<TRIPOS>ATOM
      1 C1          73.6200    95.4170   163.2130 c3         1 4PR      -0.095100
      2 C2          75.0420    94.8610   163.0050 c3         1 4PR      -0.074400
      3 C3          76.0790    95.4890   163.9610 c3         1 4PR      -0.076400
      4 C4          77.5000    94.9050   163.7750 c3         1 4PR      -0.103400
      5 C5          78.5620    95.4520   164.7760 c3         1 4PR       0.095700
      6 N1          78.6860    96.9100   164.6580 ns         1 4PR      -0.490900
      7 C6          78.0570    97.8180   165.4600 c          1 4PR       0.636100
      8 O1          77.3710    97.5410   166.4310 o          1 4PR      -0.531000
      9 O2          78.2390    99.0570   164.9200 os         1 4PR      -0.473100
     10 C7          77.4080   100.1090   165.4950 c5         1 4PR       0.179300
     11 C8          75.9360    99.9040   165.0110 c5         1 4PR       0.091000
     12 N2          75.9770   100.4690   163.6440 n          1 4PR      -0.435800
     13 C9          77.2110   101.2500   163.3790 c5         1 4PR       0.107000
     14 C10         77.8030   101.4660   164.8110 c5         1 4PR      -0.061000
     15 C11         77.1510   102.6900   165.5210 c3         1 4PR      -0.081600
     16 C12         79.3370   101.7230   164.7860 c3         1 4PR      -0.081600
     17 C13         74.9990   100.1680   162.6850 c          1 4PR       0.661100
     18 O3          74.0180    99.5010   162.9680 o          1 4PR      -0.630100
     19 N3          75.2200   100.7020   161.4330 ns         1 4PR      -0.416100
     20 C14         74.5070   100.5240   160.2360 cc         1 4PR      -0.087400
     21 C15         73.7250    99.4410   159.7380 cc         1 4PR       0.297300
     22 C16         73.5330    98.1130   160.4190 c3         1 4PR      -0.137400
     23 N4          73.2310    99.6640   158.5300 nd         1 4PR      -0.357300
     24 O4          73.7200   100.9700   158.1860 os         1 4PR      -0.096700
     25 C17         74.4910   101.4300   159.2210 cd         1 4PR       0.201300
     26 C18         75.1460   102.7780   159.1050 c3         1 4PR      -0.135400
     27 C19         79.9560    94.7710   164.6430 c3         1 4PR       0.074300
     28 O5          80.5590    95.0920   163.3520 oh         1 4PR      -0.660000
     29 C20         79.8410    93.2400   164.9140 c          1 4PR       0.567100
     30 O6          79.4760    92.7870   165.9910 o          1 4PR      -0.593100
     31 N5          80.1480    92.4250   163.8460 ns         1 4PR      -0.498900
     32 C21         79.8490    90.9990   163.7820 c3         1 4PR       0.163000
     33 C22         80.7750    90.2950   162.7730 c3         1 4PR      -0.101100
     34 C23         78.3690    90.8010   163.4560 ca         1 4PR      -0.097300
     35 C24         77.5190    90.1700   164.3870 ca         1 4PR      -0.099000
     36 C25         76.1480    90.0190   164.1110 ca         1 4PR      -0.107500
     37 C26         75.6150    90.5020   162.9040 ca         1 4PR      -0.105000
     38 C27         76.4540    91.1350   161.9730 ca         1 4PR      -0.107500
     39 C28         77.8250    91.2850   162.2470 ca         1 4PR      -0.099000
     40 H11         72.9250    94.9680   162.4920 hc         1 4PR       0.039367
     41 H12         73.6030    96.5040   163.0760 hc         1 4PR       0.039367
     42 H13         73.2590    95.1910   164.2230 hc         1 4PR       0.039367
     43 H21A        75.3480    95.0430   161.9670 hc         1 4PR       0.032200
     44 H22         75.0230    93.7740   163.1480 hc         1 4PR       0.032200
     45 H31         75.7560    95.3300   164.9980 hc         1 4PR       0.051200
     46 H32         76.0990    96.5730   163.7930 hc         1 4PR       0.051200
     47 H41         77.8260    95.0990   162.7460 hc         1 4PR       0.044200
     48 H42         77.4320    93.8150   163.8820 hc         1 4PR       0.044200
     49 H5          78.1980    95.2240   165.7900 h1         1 4PR       0.120700
     50 HN1         79.2170    97.2980   163.8890 hn         1 4PR       0.322500
     51 H7          77.5170   100.1280   166.5890 h1         1 4PR       0.089700
     52 H81         75.2250   100.4550   165.6410 h1         1 4PR       0.075700
     53 H82         75.6310    98.8490   165.0110 h1         1 4PR       0.075700
     54 H91         77.0030   102.2070   162.8810 h1         1 4PR       0.046700
     55 H92         77.8950   100.6720   162.7430 h1         1 4PR       0.046700
     56 H111        76.0570   102.6300   165.5360 hc         1 4PR       0.044533
     57 H112        77.4110   103.6280   165.0150 hc         1 4PR       0.044533
     58 H113        77.4900   102.7720   166.5610 hc         1 4PR       0.044533
     59 H121        79.7490   101.7650   165.8020 hc         1 4PR       0.044533
     60 H122        79.5740   102.6720   164.2900 hc         1 4PR       0.044533
     61 H123        79.8740   100.9350   164.2450 hc         1 4PR       0.044533
     62 HN3         75.9770   101.3720   161.4240 hn         1 4PR       0.319500
     63 H161        72.7010    98.1560   161.1310 hc         1 4PR       0.060700
     64 H162        74.4400    97.8070   160.9500 hc         1 4PR       0.060700
     65 H163        73.3020    97.3280   159.6900 hc         1 4PR       0.060700
     66 H181        74.8260   103.2990   158.1950 hc         1 4PR       0.064033
     67 H182        76.2370   102.6800   159.0690 hc         1 4PR       0.064033
     68 H183        74.8900   103.4120   159.9610 hc         1 4PR       0.064033
     69 H19         80.5960    95.1540   165.4490 h1         1 4PR       0.111700
     70 HO5         79.8350    95.1630   162.6920 ho         1 4PR       0.442000
     71 HN5         80.4880    92.8920   163.0140 hn         1 4PR       0.323500
     72 H21         80.0540    90.5640   164.7700 h1         1 4PR       0.078700
     73 H221        80.5510    89.2220   162.7350 hc         1 4PR       0.046367
     74 H222        81.8240    90.4130   163.0680 hc         1 4PR       0.046367
     75 H223        80.6530    90.7080   161.7650 hc         1 4PR       0.046367
     76 H24         77.9170    89.8020   165.3300 ha         1 4PR       0.107500
     77 H25         75.4990    89.5320   164.8350 ha         1 4PR       0.113000
     78 H26         74.5540    90.3880   162.6930 ha         1 4PR       0.114000
     79 H27         76.0420    91.5140   161.0400 ha         1 4PR       0.113000
     80 H28         78.4600    91.7870   161.5220 ha         1 4PR       0.107500
@<TRIPOS>BOND
     1     1     2 1   
     2     1    40 1   
     3     1    41 1   
     4     1    42 1   
     5     2     3 1   
     6     2    43 1   
     7     2    44 1   
     8     3     4 1   
     9     3    45 1   
    10     3    46 1   
    11     4     5 1   
    12     4    47 1   
    13     4    48 1   
    14     5     6 1   
    15     5    27 1   
    16     5    49 1   
    17     6     7 1   
    18     6    50 1   
    19     7     8 2   
    20     7     9 1   
    21     9    10 1   
    22    10    11 1   
    23    10    14 1   
    24    10    51 1   
    25    11    12 1   
    26    11    52 1   
    27    11    53 1   
    28    12    13 1   
    29    12    17 1   
    30    13    14 1   
    31    13    54 1   
    32    13    55 1   
    33    14    15 1   
    34    14    16 1   
    35    15    56 1   
    36    15    57 1   
    37    15    58 1   
    38    16    59 1   
    39    16    60 1   
    40    16    61 1   
    41    17    18 2   
    42    17    19 1   
    43    19    20 1   
    44    19    62 1   
    45    20    21 1   
    46    20    25 2   
    47    21    22 1   
    48    21    23 2   
    49    22    63 1   
    50    22    64 1   
    51    22    65 1   
    52    23    24 1   
    53    24    25 1   
    54    25    26 1   
    55    26    66 1   
    56    26    67 1   
    57    26    68 1   
    58    27    28 1   
    59    27    29 1   
    60    27    69 1   
    61    28    70 1   
    62    29    30 2   
    63    29    31 1   
    64    31    32 1   
    65    31    71 1   
    66    32    33 1   
    67    32    34 1   
    68    32    72 1   
    69    33    73 1   
    70    33    74 1   
    71    33    75 1   
    72    34    35 ar  
    73    34    39 ar  
    74    35    36 ar  
    75    35    76 1   
    76    36    37 ar  
    77    36    77 1   
    78    37    38 ar  
    79    37    78 1   
    80    38    39 ar  
    81    38    79 1   
    82    39    80 1   
@<TRIPOS>SUBSTRUCTURE
     1 4PR         1 TEMP              0 ****  ****    0 ROOT
