@<TRIPOS>MOLECULE
4PV
   42    45     1     0     0
SMALL
No Charge or Current Charge


@<TRIPOS>ATOM
      1 C1           2.7770     2.8050    -0.4090 c6         1 4PV       0.130800
      2 C2           2.2450     1.7990    -1.4800 c6         1 4PV       0.207800
      3 C3           3.0150    -0.0880    -0.0760 c6         1 4PV       0.207800
      4 C11         -1.9460    -0.0430     1.0260 ca         1 4PV      -0.085200
      5 C12         -0.4470    -1.7940     0.6870 ca         1 4PV      -0.003200
      6 C13         -0.6460    -3.1790     0.8360 ca         1 4PV      -0.135000
      7 C14         -0.0840    -4.0730    -0.0890 ca         1 4PV      -0.114000
      8 C15          0.6700    -3.5740    -1.1600 ca         1 4PV       0.146000
      9 C16          0.8700    -2.1920    -1.3030 ca         1 4PV      -0.105000
     10 C17          0.3180    -1.2790    -0.3690 ca         1 4PV      -0.199500
     11 F1           1.2090    -4.4270    -2.0580 f          1 4PV      -0.175000
     12 C5           0.5660     0.1700    -0.5110 cc         1 4PV       0.516400
     13 N1           1.8730     0.4810    -0.8640 nh         1 4PV      -0.771300
     14 C4           3.5480     0.9330     0.9810 c6         1 4PV       0.130800
     15 N            3.9240     2.2510     0.3770 n3         1 4PV      -0.716600
     16 C            4.4500     3.2080     1.3740 c3         1 4PV       0.153100
     17 N3          -1.0270    -0.9230     1.5730 na         1 4PV      -0.226600
     18 C6          -1.6080     0.9050     0.0120 ca         1 4PV       0.296000
     19 N2          -0.3420     1.1400    -0.5610 nd         1 4PV      -0.474000
     20 C10         -3.2560    -0.0950     1.5420 ca         1 4PV      -0.110000
     21 C9          -4.2390     0.7900     1.0790 ca         1 4PV      -0.151000
     22 C8          -3.9070     1.7420     0.1100 ca         1 4PV       0.172000
     23 F           -4.8450     2.6100    -0.3260 f          1 4PV      -0.180000
     24 C7          -2.6070     1.8050    -0.4040 ca         1 4PV      -0.140000
     25 H1           3.0780     3.7320    -0.9190 h1         1 4PV       0.044450
     26 H2           1.9470     3.0660     0.2650 h1         1 4PV       0.044450
     27 H3           1.4010     2.2540    -2.0190 h1         1 4PV       0.067450
     28 H4           3.0360     1.6430    -2.2280 h1         1 4PV       0.067450
     29 H5           2.7280    -1.0110     0.4480 h1         1 4PV       0.067450
     30 H6           3.8380    -0.3550    -0.7550 h1         1 4PV       0.067450
     31 H7          -1.2440    -3.5600     1.6610 ha         1 4PV       0.121000
     32 H8          -0.2360    -5.1440     0.0170 ha         1 4PV       0.135000
     33 H9           1.4600    -1.8300    -2.1420 ha         1 4PV       0.147000
     34 H10          2.7690     1.0770     1.7440 h1         1 4PV       0.044450
     35 H11          4.4160     0.4870     1.4890 h1         1 4PV       0.044450
     36 H13          3.6870     3.4510     2.1260 h1         1 4PV       0.032033
     37 H14          5.3220     2.7870     1.8930 h1         1 4PV       0.032033
     38 H15          4.7630     4.1410     0.8870 h1         1 4PV       0.032033
     39 H16         -0.9180    -1.0310     2.5740 hn         1 4PV       0.289000
     40 H17         -3.5130    -0.8230     2.3090 ha         1 4PV       0.112000
     41 H18         -5.2500     0.7480     1.4770 ha         1 4PV       0.133000
     42 H19         -2.3710     2.5610    -1.1480 ha         1 4PV       0.144000
@<TRIPOS>BOND
     1     1     2 1   
     2     1    15 1   
     3     1    25 1   
     4     1    26 1   
     5     2    13 1   
     6     2    27 1   
     7     2    28 1   
     8     3    13 1   
     9     3    14 1   
    10     3    29 1   
    11     3    30 1   
    12     4    17 1   
    13     4    18 ar  
    14     4    20 ar  
    15     5     6 ar  
    16     5    10 ar  
    17     5    17 1   
    18     6     7 ar  
    19     6    31 1   
    20     7     8 ar  
    21     7    32 1   
    22     8     9 ar  
    23     8    11 1   
    24     9    10 ar  
    25     9    33 1   
    26    10    12 1   
    27    12    13 1   
    28    12    19 2   
    29    14    15 1   
    30    14    34 1   
    31    14    35 1   
    32    15    16 1   
    33    16    36 1   
    34    16    37 1   
    35    16    38 1   
    36    17    39 1   
    37    18    19 1   
    38    18    24 ar  
    39    20    21 ar  
    40    20    40 1   
    41    21    22 ar  
    42    21    41 1   
    43    22    23 1   
    44    22    24 ar  
    45    24    42 1   
@<TRIPOS>SUBSTRUCTURE
     1 4PV         1 TEMP              0 ****  ****    0 ROOT
