@<TRIPOS>MOLECULE
4PV
   42    45     1     0     0
SMALL
bcc


@<TRIPOS>ATOM
      1 C1           2.6680     2.7740    -0.1600 c6         1 4PV       0.130800
      2 C2           2.1090     1.9910    -1.3370 c6         1 4PV       0.207800
      3 C3           3.0390    -0.0300    -0.4460 c6         1 4PV       0.207800
      4 C11         -1.9300     0.1060     1.0550 ca         1 4PV      -0.150500
      5 C12         -0.3300    -1.6040     0.8340 ca         1 4PV      -0.003200
      6 C13         -0.4690    -2.9660     1.0870 ca         1 4PV      -0.153000
      7 C14          0.0450    -3.9050     0.2090 ca         1 4PV      -0.132000
      8 C15          0.6690    -3.4650    -0.9430 ca         1 4PV       0.110900
      9 C16          0.8400    -2.1250    -1.2110 ca         1 4PV      -0.123000
     10 C17          0.3620    -1.1840    -0.3010 ca         1 4PV      -0.199500
     11 F1           1.1330    -4.3690    -1.8220 f          1 4PV      -0.139900
     12 C5           0.5920     0.2660    -0.5350 cc         1 4PV       0.516400
     13 N1           1.8390     0.6110    -0.9680 nh         1 4PV      -0.771300
     14 C4           3.5990     0.7630     0.7250 c6         1 4PV       0.130800
     15 N            3.8690     2.1350     0.3450 n3         1 4PV      -0.716600
     16 C            4.4540     2.8820     1.4340 c3         1 4PV       0.153100
     17 N3          -0.8920    -0.6270     1.6750 na         1 4PV      -0.176300
     18 C6          -1.6110     0.9350    -0.0370 ca         1 4PV       0.426600
     19 N2          -0.3180     1.1690    -0.4550 nd         1 4PV      -0.474000
     20 C10         -3.2390     0.0320     1.5100 ca         1 4PV      -0.128000
     21 C9          -4.2560     0.7630     0.9120 ca         1 4PV      -0.169000
     22 C8          -3.9290     1.5540    -0.1710 ca         1 4PV       0.136900
     23 F           -4.9010     2.2600    -0.7800 f          1 4PV      -0.144900
     24 C7          -2.6400     1.6580    -0.6460 ca         1 4PV      -0.223300
     25 H1           2.9150     3.7860    -0.4880 h1         1 4PV       0.044450
     26 H2           1.8910     2.8630     0.6190 h1         1 4PV       0.044450
     27 H3           1.2010     2.4570    -1.7090 h1         1 4PV       0.067450
     28 H4           2.8440     1.9780    -2.1480 h1         1 4PV       0.067450
     29 H5           2.8360    -1.0470    -0.1250 h1         1 4PV       0.067450
     30 H6           3.7800    -0.0820    -1.2480 h1         1 4PV       0.067450
     31 H7          -0.9880    -3.2970     1.9780 ha         1 4PV       0.139000
     32 H8          -0.0600    -4.9630     0.4090 ha         1 4PV       0.153000
     33 H9           1.3530    -1.8090    -2.1110 ha         1 4PV       0.165000
     34 H10          2.8890     0.7020     1.5700 h1         1 4PV       0.044450
     35 H11          4.5290     0.2920     1.0540 h1         1 4PV       0.044450
     36 H13          3.7930     2.9620     2.3110 h1         1 4PV       0.032033
     37 H14          5.3800     2.4050     1.7580 h1         1 4PV       0.032033
     38 H15          4.6950     3.8940     1.1060 h1         1 4PV       0.032033
     39 H16         -1.1800    -1.0110     2.5640 hn         1 4PV       0.238700
     40 H17         -3.4720    -0.6070     2.3540 ha         1 4PV       0.130000
     41 H18         -5.2730     0.7070     1.2770 ha         1 4PV       0.151000
     42 H19         -2.4110     2.3110    -1.4780 ha         1 4PV       0.162000
@<TRIPOS>BOND
     1     1     2 1   
     2     1    15 1   
     3     1    25 1   
     4     1    26 1   
     5     2    13 1   
     6     2    27 1   
     7     2    28 1   
     8     3    13 1   
     9     3    14 1   
    10     3    29 1   
    11     3    30 1   
    12     4    17 1   
    13     4    18 ar  
    14     4    20 ar  
    15     5     6 ar  
    16     5    10 ar  
    17     5    17 1   
    18     6     7 ar  
    19     6    31 1   
    20     7     8 ar  
    21     7    32 1   
    22     8     9 ar  
    23     8    11 1   
    24     9    10 ar  
    25     9    33 1   
    26    10    12 1   
    27    12    13 1   
    28    12    19 2   
    29    14    15 1   
    30    14    34 1   
    31    14    35 1   
    32    15    16 1   
    33    16    36 1   
    34    16    37 1   
    35    16    38 1   
    36    17    39 1   
    37    18    19 1   
    38    18    24 ar  
    39    20    21 ar  
    40    20    40 1   
    41    21    22 ar  
    42    21    41 1   
    43    22    23 1   
    44    22    24 ar  
    45    24    42 1   
@<TRIPOS>SUBSTRUCTURE
     1 4PV         1 TEMP              0 ****  ****    0 ROOT
