@<TRIPOS>MOLECULE
4PW
   21    22     1     0     0
SMALL
No Charge or Current Charge


@<TRIPOS>ATOM
      1 O3           0.5340    -0.3510    -2.1870 oh         1 4PW      -0.656000
      2 C3          -0.5470    -0.1840    -1.2460 c6         1 4PW       0.142300
      3 C2          -0.4430     1.2160    -0.5390 c6         1 4PW       0.096300
      4 O1          -1.7660     1.6990    -0.1930 oh         1 4PW      -0.697000
      5 C4          -0.5480    -1.3640    -0.2020 c6         1 4PW       0.158300
      6 O4          -1.8700    -1.6230     0.3230 oh         1 4PW      -0.692000
      7 C5           0.4470    -1.0740     0.9770 c5         1 4PW       0.129300
      8 O5           0.0690     0.1540     1.6380 os         1 4PW      -0.420000
      9 C6           1.8880    -0.6970     0.5150 c5         1 4PW       0.130600
     10 O6           1.8570     0.7600     0.4260 os         1 4PW      -0.466000
     11 C1           0.5030     1.1810     0.7340 c5         1 4PW       0.339300
     12 H1           0.3970     0.3090    -2.9030 ho         1 4PW       0.452000
     13 H2          -1.4940    -0.2180    -1.8060 h1         1 4PW       0.050700
     14 H3           0.0020     1.9210    -1.2560 h1         1 4PW       0.039700
     15 H4          -1.6760     2.6360     0.1000 ho         1 4PW       0.507000
     16 H5          -0.1940    -2.2680    -0.7220 h1         1 4PW       0.053700
     17 H6          -2.4740    -1.7250    -0.4470 ho         1 4PW       0.506000
     18 H7           0.4390    -1.9110     1.6880 h1         1 4PW       0.103700
     19 H8           2.6350    -0.9880     1.2650 h1         1 4PW       0.064700
     20 H9           2.1750    -1.1430    -0.4460 h1         1 4PW       0.064700
     21 H10          0.5190     2.1560     1.2390 h2         1 4PW       0.092700
@<TRIPOS>BOND
     1     1     2 1   
     2     1    12 1   
     3     2     3 1   
     4     2     5 1   
     5     2    13 1   
     6     3     4 1   
     7     3    11 1   
     8     3    14 1   
     9     4    15 1   
    10     5     6 1   
    11     5     7 1   
    12     5    16 1   
    13     6    17 1   
    14     7     8 1   
    15     7     9 1   
    16     7    18 1   
    17     8    11 1   
    18     9    10 1   
    19     9    19 1   
    20     9    20 1   
    21    10    11 1   
    22    11    21 1   
@<TRIPOS>SUBSTRUCTURE
     1 4PW         1 TEMP              0 ****  ****    0 ROOT
