@<TRIPOS>MOLECULE
4PW
   21    22     1     0     0
SMALL
abcg2


@<TRIPOS>ATOM
      1 O3           0.4780    -0.3830    -2.1560 oh         1 4PW      -0.656000
      2 C3          -0.5610    -0.1560    -1.2330 c6         1 4PW       0.142300
      3 C2          -0.4280     1.2190    -0.5480 c6         1 4PW       0.096300
      4 O1          -1.7140     1.6320    -0.1550 oh         1 4PW      -0.697000
      5 C4          -0.5260    -1.3290    -0.2320 c6         1 4PW       0.158300
      6 O4          -1.7880    -1.5750     0.3350 oh         1 4PW      -0.692000
      7 C5           0.4150    -1.0380     0.9320 c5         1 4PW       0.129300
      8 O5           0.0210     0.1720     1.5610 os         1 4PW      -0.420000
      9 C6           1.8400    -0.6930     0.5020 c5         1 4PW       0.130600
     10 O6           1.7840     0.7130     0.2910 os         1 4PW      -0.466000
     11 C1           0.4970     1.1370     0.6710 c5         1 4PW       0.339300
     12 H1           0.5250     0.3670    -2.7580 ho         1 4PW       0.452000
     13 H2          -1.5350    -0.1700    -1.7450 h1         1 4PW       0.050700
     14 H3           0.0090     1.9260    -1.2690 h1         1 4PW       0.039700
     15 H4          -1.6610     2.5410     0.1570 ho         1 4PW       0.507000
     16 H5          -0.1500    -2.2120    -0.7680 h1         1 4PW       0.053700
     17 H6          -2.4050    -1.7880    -0.3720 ho         1 4PW       0.506000
     18 H7           0.3800    -1.8470     1.6620 h1         1 4PW       0.103700
     19 H8           2.5530    -0.9220     1.3000 h1         1 4PW       0.064700
     20 H9           2.1590    -1.2090    -0.4030 h1         1 4PW       0.064700
     21 H10          0.5620     2.1010     1.1870 h2         1 4PW       0.092700
@<TRIPOS>BOND
     1     1     2 1   
     2     1    12 1   
     3     2     3 1   
     4     2     5 1   
     5     2    13 1   
     6     3     4 1   
     7     3    11 1   
     8     3    14 1   
     9     4    15 1   
    10     5     6 1   
    11     5     7 1   
    12     5    16 1   
    13     6    17 1   
    14     7     8 1   
    15     7     9 1   
    16     7    18 1   
    17     8    11 1   
    18     9    10 1   
    19     9    19 1   
    20     9    20 1   
    21    10    11 1   
    22    11    21 1   
@<TRIPOS>SUBSTRUCTURE
     1 4PW         1 TEMP              0 ****  ****    0 ROOT
