@<TRIPOS>MOLECULE
4PX
   44    47     1     0     0
SMALL
No Charge or Current Charge


@<TRIPOS>ATOM
      1 N            3.0700     1.6980    -0.0550 nb         1 4PX      -0.697000
      2 C            2.3150     3.9820     0.1790 ca         1 4PX      -0.198000
      3 O            0.0290    -1.8950    -0.1480 o          1 4PX      -0.518000
      4 C1           3.3230     3.0220     0.0240 ca         1 4PX       0.390900
      5 C2           1.7860     1.2690     0.0410 ca         1 4PX       0.506900
      6 C3           0.7200     2.1830     0.1480 ca         1 4PX      -0.147800
      7 C4           0.9800     3.5620     0.2360 ca         1 4PX      -0.025000
      8 N5           1.5300    -0.1560    -0.0860 n          1 4PX      -0.298500
      9 C6           0.2050    -0.6870    -0.0940 c          1 4PX       0.610200
     10 C7          -0.9120     0.3170     0.0070 cc         1 4PX      -0.133600
     11 C8          -0.6160     1.6370     0.1300 cd         1 4PX       0.068400
     12 C9           2.6680    -1.0610    -0.0370 ca         1 4PX       0.049600
     13 C10          3.6440    -0.9630     0.9820 ca         1 4PX      -0.084000
     14 C11          4.7250    -1.8610     1.0310 ca         1 4PX      -0.106000
     15 C12          4.8440    -2.8730     0.0660 ca         1 4PX      -0.102000
     16 C13          3.8760    -2.9910    -0.9450 ca         1 4PX      -0.106000
     17 C14          2.7940    -2.0940    -0.9920 ca         1 4PX      -0.084000
     18 N15         -2.3370     0.1980     0.0250 n          1 4PX      -0.271000
     19 C16         -2.8750     1.5070     0.1670 c          1 4PX       0.576000
     20 N17         -1.7920     2.3150     0.2210 ns         1 4PX      -0.489600
     21 O18         -4.0280     1.8940     0.2320 o          1 4PX      -0.577000
     22 C19         -3.1800    -1.0600    -0.0990 c3         1 4PX       0.161400
     23 C20         -4.7360    -0.7920    -0.0860 c3         1 4PX       0.153600
     24 O21         -5.5210    -1.9970    -0.2170 oh         1 4PX      -0.668000
     25 C22         -2.8790    -1.7550    -1.4630 c3         1 4PX      -0.104100
     26 C23         -2.9000    -1.9930     1.1190 c3         1 4PX      -0.104100
     27 H1           2.5700     5.0360     0.2360 ha         1 4PX       0.132000
     28 H2           4.3690     3.3210    -0.0410 h4         1 4PX       0.027100
     29 H3           0.1770     4.2900     0.3280 ha         1 4PX       0.119000
     30 H5           3.5570    -0.2010     1.7520 ha         1 4PX       0.120000
     31 H6           5.4680    -1.7740     1.8210 ha         1 4PX       0.115000
     32 H7           5.6800    -3.5680     0.1030 ha         1 4PX       0.114000
     33 H8           3.9640    -3.7760    -1.6930 ha         1 4PX       0.115000
     34 H9           2.0600    -2.1940    -1.7880 ha         1 4PX       0.120000
     35 H10         -5.0040    -0.2930     0.8550 h1         1 4PX       0.044700
     36 H11         -4.9860    -0.1100    -0.9110 h1         1 4PX       0.044700
     37 H12         -6.4670    -1.7290    -0.1980 ho         1 4PX       0.448000
     38 H13         -1.8180    -1.9050    -1.6520 hc         1 4PX       0.054533
     39 H14         -3.3600    -2.7380    -1.5250 hc         1 4PX       0.054533
     40 H15         -3.2600    -1.1440    -2.2900 hc         1 4PX       0.054533
     41 H16         -3.3000    -1.5470     2.0370 hc         1 4PX       0.054533
     42 H17         -3.3750    -2.9720     0.9880 hc         1 4PX       0.054533
     43 H18         -1.8400    -2.1690     1.2980 hc         1 4PX       0.054533
     44 H4          -1.9090     3.3170     0.3220 hn         1 4PX       0.469000
@<TRIPOS>BOND
     1     1     4 ar  
     2     1     5 ar  
     3     2     4 ar  
     4     2     7 ar  
     5     2    27 1   
     6     3     9 2   
     7     4    28 1   
     8     5     6 ar  
     9     5     8 1   
    10     6     7 ar  
    11     6    11 1   
    12     7    29 1   
    13     8     9 1   
    14     8    12 1   
    15     9    10 1   
    16    10    11 2   
    17    10    18 1   
    18    11    20 1   
    19    12    13 ar  
    20    12    17 ar  
    21    13    14 ar  
    22    13    30 1   
    23    14    15 ar  
    24    14    31 1   
    25    15    16 ar  
    26    15    32 1   
    27    16    17 ar  
    28    16    33 1   
    29    17    34 1   
    30    18    19 1   
    31    18    22 1   
    32    19    20 1   
    33    19    21 2   
    34    20    44 1   
    35    22    23 1   
    36    22    25 1   
    37    22    26 1   
    38    23    24 1   
    39    23    35 1   
    40    23    36 1   
    41    24    37 1   
    42    25    38 1   
    43    25    39 1   
    44    25    40 1   
    45    26    41 1   
    46    26    42 1   
    47    26    43 1   
@<TRIPOS>SUBSTRUCTURE
     1 4PX         1 TEMP              0 ****  ****    0 ROOT
