@<TRIPOS>MOLECULE
4PX
   44    47     1     0     0
SMALL
bcc


@<TRIPOS>ATOM
      1 N            3.0170     1.5990    -0.0190 nb         1 4PX      -0.697000
      2 C            2.3600     3.9020    -0.0150 ca         1 4PX      -0.281300
      3 O            0.0580    -1.8670     0.0450 o          1 4PX      -0.593500
      4 C1           3.3140     2.8870    -0.0240 ca         1 4PX       0.456200
      5 C2           1.7380     1.2530    -0.0030 ca         1 4PX       0.572200
      6 C3           0.6940     2.1890     0.0060 ca         1 4PX      -0.213100
      7 C4           1.0290     3.5430     0.0010 ca         1 4PX      -0.043000
      8 N5           1.4390    -0.0920     0.0040 n          1 4PX      -0.365500
      9 C6           0.1580    -0.6500     0.0240 c          1 4PX       0.752700
     10 C7          -0.9140     0.3220     0.0180 cc         1 4PX      -0.133600
     11 C8          -0.6210     1.6570     0.0180 cd         1 4PX       0.068400
     12 C9           2.5250    -1.0270    -0.0020 ca         1 4PX       0.049600
     13 C10          3.0680    -1.4520     1.1990 ca         1 4PX      -0.102000
     14 C11          4.1250    -2.3520     1.1900 ca         1 4PX      -0.124000
     15 C12          4.6300    -2.8210    -0.0150 ca         1 4PX      -0.120000
     16 C13          4.0760    -2.3900    -1.2140 ca         1 4PX      -0.124000
     17 C14          3.0210    -1.4900    -1.2090 ca         1 4PX      -0.102000
     18 N15         -2.3170     0.2000     0.0300 n          1 4PX      -0.338000
     19 C16         -2.8590     1.4720     0.0430 c          1 4PX       0.785500
     20 N17         -1.7900     2.3360     0.0330 ns         1 4PX      -0.443100
     21 O18         -4.0220     1.8280     0.0600 o          1 4PX      -0.652500
     22 C19         -3.0890    -1.0770     0.0080 c3         1 4PX       0.161400
     23 C20         -4.6120    -0.8110    -0.0170 c3         1 4PX       0.130400
     24 O21         -5.2420    -2.0740    -0.0380 oh         1 4PX      -0.605800
     25 C22         -2.7370    -1.8370    -1.2740 c3         1 4PX      -0.104100
     26 C23         -2.7800    -1.8580     1.2880 c3         1 4PX      -0.104100
     27 H1           2.6630     4.9390    -0.0200 ha         1 4PX       0.150000
     28 H2           4.3690     3.1320    -0.0370 h4         1 4PX       0.027100
     29 H3           0.2590     4.3030     0.0070 ha         1 4PX       0.137000
     30 H5           2.6700    -1.0810     2.1350 ha         1 4PX       0.138000
     31 H6           4.5540    -2.6840     2.1260 ha         1 4PX       0.133000
     32 H7           5.4550    -3.5220    -0.0210 ha         1 4PX       0.132000
     33 H8           4.4670    -2.7530    -2.1560 ha         1 4PX       0.133000
     34 H9           2.5870    -1.1460    -2.1400 ha         1 4PX       0.138000
     35 H10         -4.9180    -0.2480     0.8690 h1         1 4PX       0.044700
     36 H11         -4.8860    -0.2320    -0.9030 h1         1 4PX       0.044700
     37 H12         -6.1910    -1.9210    -0.0490 ho         1 4PX       0.409000
     38 H13         -1.6860    -2.0960    -1.3270 hc         1 4PX       0.054533
     39 H14         -3.3070    -2.7620    -1.3280 hc         1 4PX       0.054533
     40 H15         -2.9940    -1.2340    -2.1470 hc         1 4PX       0.054533
     41 H16         -3.1220    -1.2980     2.1600 hc         1 4PX       0.054533
     42 H17         -3.3010    -2.8140     1.2800 hc         1 4PX       0.054533
     43 H18         -1.7220    -2.0630     1.4030 hc         1 4PX       0.054533
     44 H4          -1.9090     3.3380     0.0400 hn         1 4PX       0.355500
@<TRIPOS>BOND
     1     1     4 ar  
     2     1     5 ar  
     3     2     4 ar  
     4     2     7 ar  
     5     2    27 1   
     6     3     9 2   
     7     4    28 1   
     8     5     6 ar  
     9     5     8 1   
    10     6     7 ar  
    11     6    11 1   
    12     7    29 1   
    13     8     9 1   
    14     8    12 1   
    15     9    10 1   
    16    10    11 2   
    17    10    18 1   
    18    11    20 1   
    19    12    13 ar  
    20    12    17 ar  
    21    13    14 ar  
    22    13    30 1   
    23    14    15 ar  
    24    14    31 1   
    25    15    16 ar  
    26    15    32 1   
    27    16    17 ar  
    28    16    33 1   
    29    17    34 1   
    30    18    19 1   
    31    18    22 1   
    32    19    20 1   
    33    19    21 2   
    34    20    44 1   
    35    22    23 1   
    36    22    25 1   
    37    22    26 1   
    38    23    24 1   
    39    23    35 1   
    40    23    36 1   
    41    24    37 1   
    42    25    38 1   
    43    25    39 1   
    44    25    40 1   
    45    26    41 1   
    46    26    42 1   
    47    26    43 1   
@<TRIPOS>SUBSTRUCTURE
     1 4PX         1 TEMP              0 ****  ****    0 ROOT
