@<TRIPOS>MOLECULE
4PZ
   12    12     1     0     0
SMALL
bcc


@<TRIPOS>ATOM
      1 C3          -0.1280    -1.1030     0.0730 cc         1 4PZ      -0.143300
      2 N2          -1.3820    -0.6200     0.0130 na         1 4PZ      -0.006600
      3 N1          -1.4250     0.7020    -0.0680 nc         1 4PZ      -0.522800
      4 C4           0.7190    -0.0180     0.0280 cd         1 4PZ      -0.260600
      5 C19          2.2110    -0.0100     0.0570 c3         1 4PZ      -0.005800
      6 C5          -0.1590     1.0810    -0.0600 cd         1 4PZ       0.303200
      7 H3           0.0730    -2.1600     0.1420 h4         1 4PZ       0.169000
      8 HN2         -2.2380    -1.1510     0.0280 hn         1 4PZ       0.319700
      9 H19          2.6340     0.3180    -0.8940 hc         1 4PZ       0.037367
     10 H19A         2.5930     0.6630     0.8260 hc         1 4PZ       0.037367
     11 H19B         2.6060    -1.0030     0.2650 hc         1 4PZ       0.037367
     12 H5           0.0950     2.1300    -0.1160 h4         1 4PZ       0.035100
@<TRIPOS>BOND
     1     1     2 1   
     2     1     4 2   
     3     1     7 1   
     4     2     3 1   
     5     2     8 1   
     6     3     6 2   
     7     4     5 1   
     8     4     6 1   
     9     5     9 1   
    10     5    10 1   
    11     5    11 1   
    12     6    12 1   
@<TRIPOS>SUBSTRUCTURE
     1 4PZ         1 TEMP              0 ****  ****    0 ROOT
