@<TRIPOS>MOLECULE
4PZ
   12    12     1     0     0
SMALL
No Charge or Current Charge


@<TRIPOS>ATOM
      1 C3          -0.1060    -1.1400     0.0210 cc         1 4PZ      -0.176000
      2 N2          -1.3970    -0.6170    -0.0050 na         1 4PZ      -0.006200
      3 N1          -1.4320     0.7680    -0.0140 nc         1 4PZ      -0.522800
      4 C4           0.7000    -0.0370     0.0300 cd         1 4PZ      -0.195300
      5 C19          2.2060    -0.0080     0.0550 c3         1 4PZ      -0.005800
      6 C5          -0.1530     1.0900     0.0070 cd         1 4PZ       0.237900
      7 H3           0.1120    -2.2020     0.0310 h4         1 4PZ       0.151000
      8 HN2         -2.2590    -1.1630    -0.0170 hn         1 4PZ       0.370000
      9 H19          2.6120     0.0870    -0.9590 hc         1 4PZ       0.037367
     10 H19A         2.5740     0.8390     0.6450 hc         1 4PZ       0.037367
     11 H19B         2.6130    -0.9250     0.4960 hc         1 4PZ       0.037367
     12 H5           0.1300     2.1360     0.0050 h4         1 4PZ       0.035100
@<TRIPOS>BOND
     1     1     2 1   
     2     1     4 2   
     3     1     7 1   
     4     2     3 1   
     5     2     8 1   
     6     3     6 2   
     7     4     5 1   
     8     4     6 1   
     9     5     9 1   
    10     5    10 1   
    11     5    11 1   
    12     6    12 1   
@<TRIPOS>SUBSTRUCTURE
     1 4PZ         1 TEMP              0 ****  ****    0 ROOT
