@<TRIPOS>MOLECULE
4Q0
   61    65     1     0     0
SMALL
No Charge or Current Charge


@<TRIPOS>ATOM
      1 C2           4.1840     3.7790    -0.5060 ca         1 4Q0      -0.106000
      2 C3           3.8710     2.4110    -0.3950 ca         1 4Q0       0.193400
      3 C5           6.2140     1.8930    -0.8760 ca         1 4Q0      -0.040000
      4 C9           2.7150    -1.5660    -0.0190 ca         1 4Q0      -0.019400
      5 C11         -0.1350     1.6370     0.4680 c3         1 4Q0       0.124000
      6 C12          2.2180    -2.2640    -1.1350 ca         1 4Q0      -0.055000
      7 C13          1.7040    -3.5650    -0.9860 ca         1 4Q0      -0.170000
      8 C15          2.2050    -3.4830     1.3940 ca         1 4Q0      -0.170000
      9 C18          0.6550    -6.2470    -0.5710 c3         1 4Q0       0.147900
     10 N19         -1.5120     1.2060     0.7730 n          1 4Q0      -0.401400
     11 C20         -2.0010     1.0730     2.0700 c          1 4Q0       0.581600
     12 C21         -3.4310     0.6820     1.9010 ca         1 4Q0      -0.101600
     13 C22         -3.7150     0.6220     0.5400 ca         1 4Q0      -0.205600
     14 C            6.5070     3.2610    -0.9830 ca         1 4Q0      -0.136000
     15 N            2.5410     2.0820    -0.1020 nc         1 4Q0      -0.644100
     16 C1           5.4900     4.2070    -0.7980 ca         1 4Q0      -0.074000
     17 C4           4.8980     1.4720    -0.5830 ca         1 4Q0      -0.203600
     18 C6           2.2850     0.7690    -0.0050 cd         1 4Q0       0.526900
     19 N7           3.2410    -0.2390    -0.1750 n          1 4Q0      -0.258500
     20 C8           4.5690     0.0350    -0.4660 c          1 4Q0       0.579600
     21 C14          1.6940    -4.1790     0.2860 ca         1 4Q0       0.153100
     22 C16          2.7180    -2.1840     1.2450 ca         1 4Q0      -0.055000
     23 O17          1.2020    -5.4510     0.4950 os         1 4Q0      -0.339100
     24 C23         -2.4760     0.9740    -0.2090 c          1 4Q0       0.596600
     25 C24         -4.4080     0.4020     2.8650 ca         1 4Q0      -0.092000
     26 C25         -5.6970     0.0510     2.4150 ca         1 4Q0      -0.055000
     27 C26         -5.9870    -0.0100     1.0300 ca         1 4Q0      -0.198000
     28 C27         -4.9880     0.2840     0.0670 ca         1 4Q0       0.224100
     29 O28         -2.3160     1.0490    -1.4180 o          1 4Q0      -0.478000
     30 O29         -1.3850     1.2400     3.1130 o          1 4Q0      -0.491000
     31 O30         -5.2080     0.2330    -1.2950 os         1 4Q0      -0.326100
     32 C31         -6.5150     0.1090    -1.8840 c3         1 4Q0       0.179300
     33 C32         -7.2560     1.4560    -1.7250 c3         1 4Q0      -0.108600
     34 C33         -6.2970    -0.2610    -3.3630 c3         1 4Q0      -0.108600
     35 H1           3.4010     4.5190    -0.3640 ha         1 4Q0       0.132000
     36 H2           7.0100     1.1640    -1.0220 ha         1 4Q0       0.135000
     37 H3           0.7890    -0.1390     1.2460 hc         1 4Q0       0.076700
     38 H4           0.4260    -0.2080    -0.4730 hc         1 4Q0       0.076700
     39 H5           0.2200     2.2950     1.2730 h1         1 4Q0       0.082200
     40 H6          -0.1410     2.2260    -0.4590 h1         1 4Q0       0.082200
     41 H7           2.2270    -1.7970    -2.1180 ha         1 4Q0       0.126500
     42 H8           1.3220    -4.0780    -1.8640 ha         1 4Q0       0.127500
     43 H9           2.2030    -3.9560     2.3730 ha         1 4Q0       0.127500
     44 H10         -0.2090    -5.7470    -1.0270 h1         1 4Q0       0.043033
     45 H11          1.4090    -6.4290    -1.3490 h1         1 4Q0       0.043033
     46 H12          0.3220    -7.2190    -0.1870 h1         1 4Q0       0.043033
     47 H13          7.5210     3.5860    -1.2090 ha         1 4Q0       0.119000
     48 H14          5.7100     5.2700    -0.8790 ha         1 4Q0       0.116000
     49 H15          3.1140    -1.6550     2.1100 ha         1 4Q0       0.126500
     50 H16         -4.1780     0.4520     3.9280 ha         1 4Q0       0.141000
     51 H17         -6.4760    -0.1760     3.1410 ha         1 4Q0       0.120000
     52 H18         -6.9900    -0.2930     0.7280 ha         1 4Q0       0.124000
     53 H19         -7.0910    -0.6970    -1.4130 h1         1 4Q0       0.042700
     54 H20         -8.2310     1.4160    -2.2240 hc         1 4Q0       0.050700
     55 H21         -7.4290     1.6940    -0.6700 hc         1 4Q0       0.050700
     56 H22         -6.6760     2.2730    -2.1720 hc         1 4Q0       0.050700
     57 H23         -5.7610    -1.2140    -3.4440 hc         1 4Q0       0.050700
     58 H24         -7.2590    -0.3680    -3.8780 hc         1 4Q0       0.050700
     59 H25         -5.7130     0.5110    -3.8780 hc         1 4Q0       0.050700
     60 C10          0.8300     0.4370     0.3150 c3         1 4Q0      -0.140700
     61 O            5.4030    -0.8500    -0.6140 o          1 4Q0      -0.520000
@<TRIPOS>BOND
     1     1     2 ar  
     2     1    16 ar  
     3     1    35 1   
     4     2    15 1   
     5     2    17 ar  
     6     3    14 ar  
     7     3    17 ar  
     8     3    36 1   
     9     4     6 ar  
    10     4    19 1   
    11     4    22 ar  
    12     5    10 1   
    13     5    39 1   
    14     5    40 1   
    15     5    60 1   
    16     6     7 ar  
    17     6    41 1   
    18     7    21 ar  
    19     7    42 1   
    20     8    21 ar  
    21     8    22 ar  
    22     8    43 1   
    23     9    23 1   
    24     9    44 1   
    25     9    45 1   
    26     9    46 1   
    27    10    11 1   
    28    10    24 1   
    29    11    12 1   
    30    11    30 2   
    31    12    13 ar  
    32    12    25 ar  
    33    13    24 1   
    34    13    28 ar  
    35    14    16 ar  
    36    14    47 1   
    37    15    18 2   
    38    16    48 1   
    39    17    20 1   
    40    18    19 1   
    41    18    60 1   
    42    19    20 1   
    43    20    61 2   
    44    21    23 1   
    45    22    49 1   
    46    24    29 2   
    47    25    26 ar  
    48    25    50 1   
    49    26    27 ar  
    50    26    51 1   
    51    27    28 ar  
    52    27    52 1   
    53    28    31 1   
    54    31    32 1   
    55    32    33 1   
    56    32    34 1   
    57    32    53 1   
    58    33    54 1   
    59    33    55 1   
    60    33    56 1   
    61    34    57 1   
    62    34    58 1   
    63    34    59 1   
    64    37    60 1   
    65    38    60 1   
@<TRIPOS>SUBSTRUCTURE
     1 4Q0         1 TEMP              0 ****  ****    0 ROOT
