@<TRIPOS>MOLECULE
4Q0
   61    65     1     0     0
SMALL
bcc


@<TRIPOS>ATOM
      1 C2           4.2310     3.7310    -0.4570 ca         1 4Q0      -0.124000
      2 C3           3.8440     2.3890    -0.3550 ca         1 4Q0       0.193400
      3 C5           6.1360     1.7230    -0.8000 ca         1 4Q0      -0.058000
      4 C9           2.5820    -1.5380    -0.0480 ca         1 4Q0      -0.019400
      5 C11         -0.1130     1.7800     0.5010 c3         1 4Q0       0.124000
      6 C12          2.0840    -2.1880    -1.1610 ca         1 4Q0      -0.073000
      7 C13          1.6170    -3.4920    -1.0650 ca         1 4Q0      -0.188000
      8 C15          2.1720    -3.4920     1.2820 ca         1 4Q0      -0.188000
      9 C18          0.6640    -6.1130    -0.7310 c3         1 4Q0       0.124700
     10 N19         -1.4820     1.4170     0.7950 n          1 4Q0      -0.535400
     11 C20         -1.9760     1.2270     2.0700 c          1 4Q0       0.724100
     12 C21         -3.3960     0.8300     1.9040 ca         1 4Q0      -0.101600
     13 C22         -3.6710     0.7890     0.5450 ca         1 4Q0      -0.205600
     14 C            6.5040     3.0470    -0.8970 ca         1 4Q0      -0.154000
     15 N            2.5300     2.0950    -0.0850 nc         1 4Q0      -0.644100
     16 C1           5.5440     4.0510    -0.7250 ca         1 4Q0      -0.092000
     17 C4           4.8060     1.3870    -0.5300 ca         1 4Q0      -0.203600
     18 C6           2.1740     0.8670     0.0060 cd         1 4Q0       0.526900
     19 N7           3.0460    -0.1890    -0.1560 n          1 4Q0      -0.325500
     20 C8           4.3990    -0.0060    -0.4270 c          1 4Q0       0.722100
     21 C14          1.6590    -4.1530     0.1620 ca         1 4Q0       0.153100
     22 C16          2.6310    -2.1940     1.1750 ca         1 4Q0      -0.073000
     23 O17          1.2330    -5.4100     0.3580 os         1 4Q0      -0.315900
     24 C23         -2.4410     1.1600    -0.1820 c          1 4Q0       0.739100
     25 C24         -4.3330     0.5260     2.8620 ca         1 4Q0      -0.110000
     26 C25         -5.5970     0.1650     2.3950 ca         1 4Q0      -0.073000
     27 C26         -5.8950     0.1130     1.0410 ca         1 4Q0      -0.216000
     28 C27         -4.9280     0.4260     0.0710 ca         1 4Q0       0.224100
     29 O28         -2.2380     1.2420    -1.3670 o          1 4Q0      -0.553500
     30 O29         -1.3520     1.3610     3.0940 o          1 4Q0      -0.566500
     31 O30         -5.1090     0.3910    -1.2440 os         1 4Q0      -0.302900
     32 C31         -6.3720     0.0020    -1.8100 c3         1 4Q0       0.156100
     33 C32         -7.3530     1.1610    -1.7790 c3         1 4Q0      -0.108600
     34 C33         -6.0730    -0.4560    -3.2230 c3         1 4Q0      -0.108600
     35 H1           3.4840     4.5020    -0.3220 ha         1 4Q0       0.150000
     36 H2           6.8700     0.9390    -0.9310 ha         1 4Q0       0.153000
     37 H3           0.6940    -0.0980     1.1910 hc         1 4Q0       0.076700
     38 H4           0.3350    -0.0660    -0.5150 hc         1 4Q0       0.076700
     39 H5           0.2640     2.3850     1.3220 h1         1 4Q0       0.082200
     40 H6          -0.1060     2.4050    -0.3900 h1         1 4Q0       0.082200
     41 H7           2.0500    -1.6790    -2.1160 ha         1 4Q0       0.144500
     42 H8           1.2270    -3.9690    -1.9530 ha         1 4Q0       0.145500
     43 H9           2.2040    -4.0040     2.2350 ha         1 4Q0       0.145500
     44 H10         -0.2290    -5.6120    -1.1130 h1         1 4Q0       0.043033
     45 H11          1.3760    -6.2420    -1.5490 h1         1 4Q0       0.043033
     46 H12          0.3830    -7.0920    -0.3530 h1         1 4Q0       0.043033
     47 H13          7.5310     3.3110    -1.1060 ha         1 4Q0       0.137000
     48 H14          5.8370     5.0900    -0.8030 ha         1 4Q0       0.134000
     49 H15          3.0210    -1.6880     2.0490 ha         1 4Q0       0.144500
     50 H16         -4.1100     0.5620     3.9190 ha         1 4Q0       0.159000
     51 H17         -6.3770    -0.0840     3.1020 ha         1 4Q0       0.138000
     52 H18         -6.8950    -0.1790     0.7530 ha         1 4Q0       0.142000
     53 H19         -6.7720    -0.8460    -1.2450 h1         1 4Q0       0.042700
     54 H20         -8.3000     0.8490    -2.2190 hc         1 4Q0       0.050700
     55 H21         -7.5610     1.5090    -0.7670 hc         1 4Q0       0.050700
     56 H22         -6.9740     2.0050    -2.3580 hc         1 4Q0       0.050700
     57 H23         -5.3680    -1.2870    -3.2310 hc         1 4Q0       0.050700
     58 H24         -6.9930    -0.7940    -3.7000 hc         1 4Q0       0.050700
     59 H25         -5.6630     0.3580    -3.8230 hc         1 4Q0       0.050700
     60 C10          0.7430     0.5350     0.3010 c3         1 4Q0      -0.140700
     61 O            5.1400    -0.9600    -0.5600 o          1 4Q0      -0.595500
@<TRIPOS>BOND
     1     1     2 ar  
     2     1    16 ar  
     3     1    35 1   
     4     2    15 1   
     5     2    17 ar  
     6     3    14 ar  
     7     3    17 ar  
     8     3    36 1   
     9     4     6 ar  
    10     4    19 1   
    11     4    22 ar  
    12     5    10 1   
    13     5    39 1   
    14     5    40 1   
    15     5    60 1   
    16     6     7 ar  
    17     6    41 1   
    18     7    21 ar  
    19     7    42 1   
    20     8    21 ar  
    21     8    22 ar  
    22     8    43 1   
    23     9    23 1   
    24     9    44 1   
    25     9    45 1   
    26     9    46 1   
    27    10    11 1   
    28    10    24 1   
    29    11    12 1   
    30    11    30 2   
    31    12    13 ar  
    32    12    25 ar  
    33    13    24 1   
    34    13    28 ar  
    35    14    16 ar  
    36    14    47 1   
    37    15    18 2   
    38    16    48 1   
    39    17    20 1   
    40    18    19 1   
    41    18    60 1   
    42    19    20 1   
    43    20    61 2   
    44    21    23 1   
    45    22    49 1   
    46    24    29 2   
    47    25    26 ar  
    48    25    50 1   
    49    26    27 ar  
    50    26    51 1   
    51    27    28 ar  
    52    27    52 1   
    53    28    31 1   
    54    31    32 1   
    55    32    33 1   
    56    32    34 1   
    57    32    53 1   
    58    33    54 1   
    59    33    55 1   
    60    33    56 1   
    61    34    57 1   
    62    34    58 1   
    63    34    59 1   
    64    37    60 1   
    65    38    60 1   
@<TRIPOS>SUBSTRUCTURE
     1 4Q0         1 TEMP              0 ****  ****    0 ROOT
