@<TRIPOS>MOLECULE
4Q1
   68    72     1     0     0
SMALL
No Charge or Current Charge


@<TRIPOS>ATOM
      1 C1          -6.0930     3.6900     1.3520 c3         1 4Q1       0.151900
      2 O1          -5.5690     2.4190     0.9280 os         1 4Q1      -0.348100
      3 C2          -4.2230     2.2180     0.6990 ca         1 4Q1       0.150100
      4 C3          -3.8160     0.9330     0.2880 ca         1 4Q1      -0.169000
      5 C4          -2.4510     0.7070     0.0500 ca         1 4Q1      -0.005200
      6 C5          -1.5290     1.7070     0.2110 ca         1 4Q1      -0.107800
      7 C6          -1.8930     2.9970     0.6210 ca         1 4Q1      -0.026000
      8 C7          -3.2590     3.2500     0.8650 ca         1 4Q1      -0.214000
      9 N18         -1.7970    -0.4510    -0.3550 na         1 4Q1      -0.074700
     10 C19         -0.4050    -0.2180    -0.4130 cc         1 4Q1      -0.048300
     11 C20         -0.2420     1.1290    -0.1130 cd         1 4Q1      -0.190400
     12 C21         -2.5410    -1.6530    -0.7780 c3         1 4Q1       0.117800
     13 C22         -3.1020    -2.4370     0.4000 c2         1 4Q1      -0.256200
     14 C23         -4.3700    -2.8400     0.6100 c2         1 4Q1      -0.085400
     15 C24         -4.7790    -3.5890     1.8650 c3         1 4Q1      -0.062400
     16 C26         -5.5470    -2.6200    -0.3290 c3         1 4Q1      -0.062400
     17 C33          1.1350     1.7780    -0.1870 c6         1 4Q1       0.228500
     18 C34          2.1690     0.9000    -1.0070 c6         1 4Q1       0.223400
     19 N35          2.0300    -0.5000    -0.4540 n          1 4Q1      -0.379800
     20 C36          0.7260    -1.1310    -0.8420 c6         1 4Q1       0.200100
     21 C37          0.5240    -2.5540    -0.3300 c2         1 4Q1      -0.231200
     22 C38          0.9800    -3.6770    -0.9160 c2         1 4Q1      -0.087400
     23 C39          0.7200    -5.0540    -0.3350 c3         1 4Q1      -0.062900
     24 C40          1.8030    -3.7360    -2.1950 c3         1 4Q1      -0.062900
     25 O41          1.0200     3.0930    -0.7470 oh         1 4Q1      -0.640000
     26 C42          3.5940     1.5380    -0.8060 c          1 4Q1       0.550000
     27 N43          4.2890     1.1180     0.3260 n          1 4Q1      -0.391800
     28 C44          4.1750    -0.2800     0.7440 c5         1 4Q1       0.019700
     29 C45          2.7370    -0.8790     0.7290 c          1 4Q1       0.561000
     30 O46          4.1280     2.2460    -1.6560 o          1 4Q1      -0.552000
     31 O47          2.2710    -1.5880     1.6110 o          1 4Q1      -0.512000
     32 O48          1.8600     0.9140    -2.4250 oh         1 4Q1      -0.647000
     33 C53          5.5400     1.7390     0.8050 c5         1 4Q1       0.099000
     34 C54          6.0620     0.6840     1.8320 c5         1 4Q1      -0.100400
     35 C55          4.8050    -0.1770     2.1550 c5         1 4Q1      -0.079400
     36 H1          -5.8770     4.4680     0.6100 h1         1 4Q1       0.038367
     37 H2          -7.1810     3.6300     1.4750 h1         1 4Q1       0.038367
     38 H3          -5.6580     3.9890     2.3140 h1         1 4Q1       0.038367
     39 H4          -4.5490     0.1420     0.1640 ha         1 4Q1       0.132000
     40 H5          -1.1480     3.7780     0.7520 ha         1 4Q1       0.123000
     41 H6          -3.5500     4.2460     1.1840 ha         1 4Q1       0.114000
     42 H7          -3.3360    -1.3260    -1.4560 h1         1 4Q1       0.065200
     43 H8          -1.8770    -2.2980    -1.3660 h1         1 4Q1       0.065200
     44 H9          -2.3470    -2.6550     1.1550 ha         1 4Q1       0.183000
     45 H10         -5.5460    -3.0370     2.4210 hc         1 4Q1       0.043367
     46 H11         -5.1870    -4.5770     1.6210 hc         1 4Q1       0.043367
     47 H12         -3.9310    -3.7430     2.5430 hc         1 4Q1       0.043367
     48 H13         -5.2710    -2.1220    -1.2640 hc         1 4Q1       0.043367
     49 H14         -6.0110    -3.5750    -0.6040 hc         1 4Q1       0.043367
     50 H15         -6.3180    -2.0050     0.1490 hc         1 4Q1       0.043367
     51 H16          1.5180     1.8580     0.8420 h1         1 4Q1       0.082700
     52 H17          0.6860    -1.1850    -1.9390 h1         1 4Q1       0.092700
     53 H18         -0.0330    -2.6240     0.6030 ha         1 4Q1       0.195000
     54 H19          0.1740    -5.6860    -1.0460 hc         1 4Q1       0.043700
     55 H20          1.6590    -5.5630    -0.0870 hc         1 4Q1       0.043700
     56 H21          0.1230    -5.0030     0.5840 hc         1 4Q1       0.043700
     57 H22          2.7440    -4.2740    -2.0290 hc         1 4Q1       0.043700
     58 H23          1.2570    -4.2610    -2.9880 hc         1 4Q1       0.043700
     59 H24          2.0700    -2.7460    -2.5800 hc         1 4Q1       0.043700
     60 H25          0.4000     2.9950    -1.5010 ho         1 4Q1       0.459000
     61 H26          4.7840    -0.9150     0.0860 h1         1 4Q1       0.081700
     62 H27          2.4240     1.6270    -2.8040 ho         1 4Q1       0.490000
     63 H28          6.2590     1.9130    -0.0070 h1         1 4Q1       0.063200
     64 H29          5.3260     2.7000     1.2920 h1         1 4Q1       0.063200
     65 H30          6.8480     0.0660     1.3810 hc         1 4Q1       0.056700
     66 H31          6.4950     1.1500     2.7250 hc         1 4Q1       0.056700
     67 H32          4.1370     0.3320     2.8610 hc         1 4Q1       0.069200
     68 H33          5.0570    -1.1550     2.5810 hc         1 4Q1       0.069200
@<TRIPOS>BOND
     1     1     2 1   
     2     1    36 1   
     3     1    37 1   
     4     1    38 1   
     5     2     3 1   
     6     3     4 ar  
     7     3     8 ar  
     8     4     5 ar  
     9     4    39 1   
    10     5     6 ar  
    11     5     9 1   
    12     6     7 ar  
    13     6    11 1   
    14     7     8 ar  
    15     7    40 1   
    16     8    41 1   
    17     9    10 1   
    18     9    12 1   
    19    10    11 2   
    20    10    20 1   
    21    11    17 1   
    22    12    13 1   
    23    12    42 1   
    24    12    43 1   
    25    13    14 2   
    26    13    44 1   
    27    14    15 1   
    28    14    16 1   
    29    15    45 1   
    30    15    46 1   
    31    15    47 1   
    32    16    48 1   
    33    16    49 1   
    34    16    50 1   
    35    17    18 1   
    36    17    25 1   
    37    17    51 1   
    38    18    19 1   
    39    18    26 1   
    40    18    32 1   
    41    19    20 1   
    42    19    29 1   
    43    20    21 1   
    44    20    52 1   
    45    21    22 2   
    46    21    53 1   
    47    22    23 1   
    48    22    24 1   
    49    23    54 1   
    50    23    55 1   
    51    23    56 1   
    52    24    57 1   
    53    24    58 1   
    54    24    59 1   
    55    25    60 1   
    56    26    27 1   
    57    26    30 2   
    58    27    28 1   
    59    27    33 1   
    60    28    29 1   
    61    28    35 1   
    62    28    61 1   
    63    29    31 2   
    64    32    62 1   
    65    33    34 1   
    66    33    63 1   
    67    33    64 1   
    68    34    35 1   
    69    34    65 1   
    70    34    66 1   
    71    35    67 1   
    72    35    68 1   
@<TRIPOS>SUBSTRUCTURE
     1 4Q1         1 TEMP              0 ****  ****    0 ROOT
