@<TRIPOS>MOLECULE
4Q1
   68    72     1     0     0
SMALL
abcg2


@<TRIPOS>ATOM
      1 C1          -5.8320     3.6690     1.4080 c3         1 4Q1       0.151900
      2 O1          -5.3970     2.4010     0.9630 os         1 4Q1      -0.348100
      3 C2          -4.0770     2.2100     0.7340 ca         1 4Q1       0.150100
      4 C3          -3.7150     0.9330     0.3240 ca         1 4Q1      -0.169000
      5 C4          -2.3670     0.6910     0.0810 ca         1 4Q1      -0.005200
      6 C5          -1.3780     1.6860     0.2350 ca         1 4Q1      -0.107800
      7 C6          -1.7720     2.9590     0.6450 ca         1 4Q1      -0.026000
      8 C7          -3.1080     3.2170     0.8950 ca         1 4Q1      -0.214000
      9 N18         -1.7560    -0.4630    -0.3370 na         1 4Q1      -0.074700
     10 C19         -0.4040    -0.2290    -0.4250 cc         1 4Q1      -0.048300
     11 C20         -0.1310     1.0700    -0.1070 cd         1 4Q1      -0.190400
     12 C21         -2.4790    -1.6750    -0.6780 c3         1 4Q1       0.117800
     13 C22         -2.9930    -2.3830     0.5380 c2         1 4Q1      -0.256200
     14 C23         -4.2390    -2.8040     0.7650 c2         1 4Q1      -0.085400
     15 C24         -4.5850    -3.5170     2.0390 c3         1 4Q1      -0.062400
     16 C26         -5.3900    -2.6270    -0.1800 c3         1 4Q1      -0.062400
     17 C33          1.2220     1.7040    -0.2030 c6         1 4Q1       0.228500
     18 C34          2.1380     0.7700    -1.0530 c6         1 4Q1       0.223400
     19 N35          1.9490    -0.5860    -0.5360 n          1 4Q1      -0.379800
     20 C36          0.6490    -1.1810    -0.9090 c6         1 4Q1       0.200100
     21 C37          0.5160    -2.6220    -0.4980 c2         1 4Q1      -0.231200
     22 C38          1.0090    -3.6450    -1.1990 c2         1 4Q1      -0.087400
     23 C39          0.8090    -5.0550    -0.7290 c3         1 4Q1      -0.062900
     24 C40          1.8100    -3.5120    -2.4580 c3         1 4Q1      -0.062900
     25 O41          1.1780     3.0020    -0.7220 oh         1 4Q1      -0.640000
     26 C42          3.5850     1.2520    -0.9310 c          1 4Q1       0.550000
     27 N43          4.2850     0.7720     0.0860 n          1 4Q1      -0.391800
     28 C44          3.8620    -0.3140     0.9450 c5         1 4Q1       0.019700
     29 C45          2.4750    -0.8520     0.6950 c          1 4Q1       0.561000
     30 O46          3.9930     2.0950    -1.7180 o          1 4Q1      -0.552000
     31 O47          1.9590    -1.5690     1.5250 o          1 4Q1      -0.512000
     32 O48          1.7570     0.8170    -2.3810 oh         1 4Q1      -0.647000
     33 C53          5.4770     1.4130     0.6320 c5         1 4Q1       0.099000
     34 C54          5.5160     0.9210     2.0930 c5         1 4Q1      -0.100400
     35 C55          4.1670     0.2330     2.3310 c5         1 4Q1      -0.079400
     36 H1          -5.6260     4.4550     0.6770 h1         1 4Q1       0.038367
     37 H2          -6.9090     3.5950     1.5440 h1         1 4Q1       0.038367
     38 H3          -5.3770     3.9480     2.3620 h1         1 4Q1       0.038367
     39 H4          -4.4700     0.1660     0.2140 ha         1 4Q1       0.132000
     40 H5          -1.0450     3.7500     0.7670 ha         1 4Q1       0.123000
     41 H6          -3.3930     4.2100     1.2130 ha         1 4Q1       0.114000
     42 H7          -3.2790    -1.4110    -1.3720 h1         1 4Q1       0.065200
     43 H8          -1.8010    -2.3230    -1.2340 h1         1 4Q1       0.065200
     44 H9          -2.2430    -2.5660     1.3030 ha         1 4Q1       0.183000
     45 H10         -5.3770    -2.9870     2.5750 hc         1 4Q1       0.043367
     46 H11         -4.9680    -4.5190     1.8320 hc         1 4Q1       0.043367
     47 H12         -3.7280    -3.6120     2.7040 hc         1 4Q1       0.043367
     48 H13         -5.1370    -2.0800    -1.0860 hc         1 4Q1       0.043367
     49 H14         -5.7850    -3.5990    -0.4840 hc         1 4Q1       0.043367
     50 H15         -6.2090    -2.0990     0.3130 hc         1 4Q1       0.043367
     51 H16          1.6710     1.8120     0.7940 h1         1 4Q1       0.082700
     52 H17          0.6270    -1.1580    -2.0010 h1         1 4Q1       0.092700
     53 H18         -0.0170    -2.8330     0.4200 ha         1 4Q1       0.195000
     54 H19          0.3250    -5.6560    -1.5020 hc         1 4Q1       0.043700
     55 H20          1.7680    -5.5350    -0.5180 hc         1 4Q1       0.043700
     56 H21          0.2000    -5.1050     0.1730 hc         1 4Q1       0.043700
     57 H22          2.8050    -3.9400    -2.3150 hc         1 4Q1       0.043700
     58 H23          1.3440    -4.0760    -3.2700 hc         1 4Q1       0.043700
     59 H24          1.9450    -2.4860    -2.7940 hc         1 4Q1       0.043700
     60 H25          0.7100     2.9760    -1.5650 ho         1 4Q1       0.459000
     61 H26          4.5220    -1.1740     0.7580 h1         1 4Q1       0.081700
     62 H27          2.4280     1.3180    -2.8660 ho         1 4Q1       0.490000
     63 H28          6.3710     1.1200     0.0810 h1         1 4Q1       0.063200
     64 H29          5.3720     2.4940     0.5540 h1         1 4Q1       0.063200
     65 H30          6.3240     0.2020     2.2250 hc         1 4Q1       0.056700
     66 H31          5.6890     1.7410     2.7880 hc         1 4Q1       0.056700
     67 H32          3.4010     0.9540     2.6270 hc         1 4Q1       0.069200
     68 H33          4.2190    -0.5440     3.0900 hc         1 4Q1       0.069200
@<TRIPOS>BOND
     1     1     2 1   
     2     1    36 1   
     3     1    37 1   
     4     1    38 1   
     5     2     3 1   
     6     3     4 ar  
     7     3     8 ar  
     8     4     5 ar  
     9     4    39 1   
    10     5     6 ar  
    11     5     9 1   
    12     6     7 ar  
    13     6    11 1   
    14     7     8 ar  
    15     7    40 1   
    16     8    41 1   
    17     9    10 1   
    18     9    12 1   
    19    10    11 2   
    20    10    20 1   
    21    11    17 1   
    22    12    13 1   
    23    12    42 1   
    24    12    43 1   
    25    13    14 2   
    26    13    44 1   
    27    14    15 1   
    28    14    16 1   
    29    15    45 1   
    30    15    46 1   
    31    15    47 1   
    32    16    48 1   
    33    16    49 1   
    34    16    50 1   
    35    17    18 1   
    36    17    25 1   
    37    17    51 1   
    38    18    19 1   
    39    18    26 1   
    40    18    32 1   
    41    19    20 1   
    42    19    29 1   
    43    20    21 1   
    44    20    52 1   
    45    21    22 2   
    46    21    53 1   
    47    22    23 1   
    48    22    24 1   
    49    23    54 1   
    50    23    55 1   
    51    23    56 1   
    52    24    57 1   
    53    24    58 1   
    54    24    59 1   
    55    25    60 1   
    56    26    27 1   
    57    26    30 2   
    58    27    28 1   
    59    27    33 1   
    60    28    29 1   
    61    28    35 1   
    62    28    61 1   
    63    29    31 2   
    64    32    62 1   
    65    33    34 1   
    66    33    63 1   
    67    33    64 1   
    68    34    35 1   
    69    34    65 1   
    70    34    66 1   
    71    35    67 1   
    72    35    68 1   
@<TRIPOS>SUBSTRUCTURE
     1 4Q1         1 TEMP              0 ****  ****    0 ROOT
