@<TRIPOS>MOLECULE
4Q2
   55    58     1     0     0
SMALL
No Charge or Current Charge


@<TRIPOS>ATOM
      1 C1           3.6490    -3.2070    -0.1260 c6         1 4Q2      -0.014100
      2 C2           2.2510    -3.3920     0.5340 c6         1 4Q2      -0.105700
      3 C3           1.3440    -2.2180     0.2570 cc         1 4Q2       0.347300
      4 C11          5.5340    -1.4510    -0.1040 ca         1 4Q2       0.110900
      5 C13          5.0270     0.8050    -0.0590 ca         1 4Q2       0.147300
      6 C15         -2.7170     0.0310    -0.2270 c          1 4Q2       0.671100
      7 C17         -5.0920     0.8880    -0.4230 c5         1 4Q2       0.042700
      8 C18         -6.3960     0.0510    -0.6800 c5         1 4Q2      -0.067700
      9 C19         -6.2100    -1.1260     0.3130 c5         1 4Q2      -0.091400
     10 C20         -4.7290    -1.5180     0.0790 c5         1 4Q2       0.107000
     11 C22         -7.7590     0.7730    -0.5540 c3         1 4Q2      -0.086100
     12 C23          5.5000     2.2830    -0.0480 c3         1 4Q2      -0.080300
     13 C24          4.9970     2.9780     1.2480 c3         1 4Q2      -0.079767
     14 C25          7.0530     2.4120    -0.0930 c3         1 4Q2      -0.079767
     15 C26          4.9200     3.0220    -1.2860 c3         1 4Q2      -0.079767
     16 C27         -5.2320     1.8780     0.7850 c          1 4Q2       0.600100
     17 C4           1.8430    -0.9690     0.0330 cd         1 4Q2      -0.390500
     18 S5           0.5610     0.2000    -0.2010 ss         1 4Q2       0.162600
     19 C6          -0.5710    -1.1520     0.0320 cd         1 4Q2       0.546300
     20 N7          -0.0200    -2.3340     0.2660 nc         1 4Q2      -0.721000
     21 N8          -1.9330    -1.0640    -0.0030 ns         1 4Q2      -0.478400
     22 C9           3.2680    -0.6820    -0.0410 ca         1 4Q2       0.229500
     23 C10          4.1650    -1.7610    -0.0680 ca         1 4Q2      -0.184300
     24 N12          5.9660    -0.1740    -0.0970 nb         1 4Q2      -0.181000
     25 N14          3.6880     0.5960    -0.0280 nb         1 4Q2      -0.189000
     26 N16         -4.1020    -0.2030    -0.1930 n          1 4Q2      -0.402800
     27 O21         -2.2670     1.1410    -0.4530 o          1 4Q2      -0.624100
     28 O28         -4.8100     1.6970     1.9180 o          1 4Q2      -0.596100
     29 N29         -5.8650     3.0410     0.5000 nt         1 4Q2      -0.600000
     30 H31          4.3710    -3.8910     0.3410 hc         1 4Q2       0.054700
     31 H30          3.5850    -3.5070    -1.1810 hc         1 4Q2       0.054700
     32 H33          1.7980    -4.3310     0.1900 hc         1 4Q2       0.064700
     33 H32          2.3800    -3.4940     1.6190 hc         1 4Q2       0.064700
     34 H35          6.2960    -2.2280    -0.1460 h4         1 4Q2       0.019100
     35 H36         -4.8300     1.4820    -1.3080 h1         1 4Q2       0.079700
     36 H37         -6.3670    -0.3380    -1.7060 hc         1 4Q2       0.058700
     37 H38         -6.3730    -0.8060     1.3500 hc         1 4Q2       0.066700
     38 H39         -6.8940    -1.9590     0.1190 hc         1 4Q2       0.066700
     39 H41         -4.3040    -2.0170     0.9610 h1         1 4Q2       0.051200
     40 H40         -4.6230    -2.1830    -0.7890 h1         1 4Q2       0.051200
     41 H42         -7.8180     1.6300    -1.2350 hc         1 4Q2       0.043033
     42 H43         -8.5810     0.0940    -0.8080 hc         1 4Q2       0.043033
     43 H44         -7.9380     1.1320     0.4670 hc         1 4Q2       0.043033
     44 H46          5.3700     2.4550     2.1380 hc         1 4Q2       0.039811
     45 H47          5.3420     4.0180     1.2970 hc         1 4Q2       0.039811
     46 H45          3.9010     2.9890     1.2970 hc         1 4Q2       0.039811
     47 H49          7.5170     1.9270     0.7750 hc         1 4Q2       0.039811
     48 H50          7.4630     1.9560    -1.0030 hc         1 4Q2       0.039811
     49 H48          7.3590     3.4660    -0.0850 hc         1 4Q2       0.039811
     50 H53          5.2640     4.0630    -1.3200 hc         1 4Q2       0.039811
     51 H51          5.2370     2.5310    -2.2140 hc         1 4Q2       0.039811
     52 H52          3.8240     3.0350    -1.2680 hc         1 4Q2       0.039811
     53 H34         -2.4380    -1.9190     0.1550 hn         1 4Q2       0.339500
     54 H55         -6.2110     3.2170    -0.4310 hn         1 4Q2       0.315500
     55 H54         -5.9820     3.7290     1.2290 hn         1 4Q2       0.315500
@<TRIPOS>BOND
     1     1     2 1   
     2     1    23 1   
     3     1    30 1   
     4     1    31 1   
     5     2     3 1   
     6     2    32 1   
     7     2    33 1   
     8     3    17 2   
     9     3    20 1   
    10     4    23 ar  
    11     4    24 ar  
    12     4    34 1   
    13     5    12 1   
    14     5    24 ar  
    15     5    25 ar  
    16     6    21 1   
    17     6    26 1   
    18     6    27 2   
    19     7     8 1   
    20     7    16 1   
    21     7    26 1   
    22     7    35 1   
    23     8     9 1   
    24     8    11 1   
    25     8    36 1   
    26     9    10 1   
    27     9    37 1   
    28     9    38 1   
    29    10    26 1   
    30    10    39 1   
    31    10    40 1   
    32    11    41 1   
    33    11    42 1   
    34    11    43 1   
    35    12    13 1   
    36    12    14 1   
    37    12    15 1   
    38    13    44 1   
    39    13    45 1   
    40    13    46 1   
    41    14    47 1   
    42    14    48 1   
    43    14    49 1   
    44    15    50 1   
    45    15    51 1   
    46    15    52 1   
    47    16    28 2   
    48    16    29 1   
    49    17    18 1   
    50    17    22 1   
    51    18    19 1   
    52    19    20 2   
    53    19    21 1   
    54    21    53 1   
    55    22    23 ar  
    56    22    25 ar  
    57    29    54 1   
    58    29    55 1   
@<TRIPOS>SUBSTRUCTURE
     1 4Q2         1 TEMP              0 ****  ****    0 ROOT
