@<TRIPOS>MOLECULE
4Q2
   55    58     1     0     0
SMALL
abcg2


@<TRIPOS>ATOM
      1 C1           3.6790    -3.1810    -0.2440 c6         1 4Q2      -0.014100
      2 C2           2.3610    -3.4670     0.4800 c6         1 4Q2      -0.105700
      3 C3           1.3700    -2.3840     0.1980 cc         1 4Q2       0.347300
      4 C11          5.4230    -1.3220    -0.0820 ca         1 4Q2       0.110900
      5 C13          4.7910     0.8600    -0.0580 ca         1 4Q2       0.147300
      6 C15         -2.6740    -0.2390    -0.2440 c          1 4Q2       0.671100
      7 C17         -4.8420     0.7740    -0.5180 c5         1 4Q2       0.042700
      8 C18         -6.2450     0.1400    -0.6220 c5         1 4Q2      -0.067700
      9 C19         -6.1790    -1.0020     0.3890 c5         1 4Q2      -0.091400
     10 C20         -4.7560    -1.5300     0.2540 c5         1 4Q2       0.107000
     11 C22         -7.4220     1.0800    -0.4360 c3         1 4Q2      -0.086100
     12 C23          5.1350     2.3390    -0.0030 c3         1 4Q2      -0.080300
     13 C24          4.6620     2.8770     1.3550 c3         1 4Q2      -0.079767
     14 C25          6.6360     2.5740    -0.1480 c3         1 4Q2      -0.079767
     15 C26          4.3930     3.0740    -1.1250 c3         1 4Q2      -0.079767
     16 C27         -4.7420     1.8210     0.5890 c          1 4Q2       0.600100
     17 C4           1.7770    -1.1120    -0.0720 cd         1 4Q2      -0.390500
     18 S5           0.4170    -0.0620    -0.2620 ss         1 4Q2       0.162600
     19 C6          -0.5930    -1.4400     0.0320 cd         1 4Q2       0.546300
     20 N7           0.0260    -2.5630     0.2590 nc         1 4Q2      -0.721000
     21 N8          -1.9550    -1.3840     0.0290 ns         1 4Q2      -0.478400
     22 C9           3.1610    -0.7220    -0.0940 ca         1 4Q2       0.229500
     23 C10          4.1160    -1.7500    -0.1150 ca         1 4Q2      -0.184300
     24 N12          5.7690    -0.0320    -0.0490 nb         1 4Q2      -0.181000
     25 N14          3.4940     0.5600    -0.0750 nb         1 4Q2      -0.189000
     26 N16         -4.0080    -0.3660    -0.2120 n          1 4Q2      -0.402800
     27 O21         -2.0970     0.8090    -0.5080 o          1 4Q2      -0.624100
     28 O28         -4.5290     1.5080     1.7500 o          1 4Q2      -0.596100
     29 N29         -4.9310     3.0820     0.1820 nt         1 4Q2      -0.600000
     30 H31          4.4600    -3.8520     0.1140 hc         1 4Q2       0.054700
     31 H30          3.5440    -3.3980    -1.3090 hc         1 4Q2       0.054700
     32 H33          1.9670    -4.4340     0.1670 hc         1 4Q2       0.064700
     33 H32          2.5200    -3.5280     1.5620 hc         1 4Q2       0.064700
     34 H35          6.2370    -2.0410    -0.0850 h4         1 4Q2       0.019100
     35 H36         -4.5550     1.2170    -1.4750 h1         1 4Q2       0.079700
     36 H37         -6.3050    -0.2920    -1.6250 hc         1 4Q2       0.058700
     37 H38         -6.3510    -0.6270     1.3990 hc         1 4Q2       0.066700
     38 H39         -6.9200    -1.7760     0.1910 hc         1 4Q2       0.066700
     39 H41         -4.3710    -1.8970     1.2080 h1         1 4Q2       0.051200
     40 H40         -4.6990    -2.3440    -0.4750 h1         1 4Q2       0.051200
     41 H42         -7.4040     1.8990    -1.1560 hc         1 4Q2       0.043033
     42 H43         -8.3550     0.5370    -0.5810 hc         1 4Q2       0.043033
     43 H44         -7.4480     1.5120     0.5660 hc         1 4Q2       0.043033
     44 H46          5.1660     2.3710     2.1800 hc         1 4Q2       0.039811
     45 H47          4.8790     3.9440     1.4350 hc         1 4Q2       0.039811
     46 H45          3.5870     2.7410     1.4790 hc         1 4Q2       0.039811
     47 H49          7.2030     2.0920     0.6480 hc         1 4Q2       0.039811
     48 H50          7.0140     2.2010    -1.1010 hc         1 4Q2       0.039811
     49 H48          6.8420     3.6450    -0.1050 hc         1 4Q2       0.039811
     50 H53          4.6050     4.1430    -1.0730 hc         1 4Q2       0.039811
     51 H51          4.7080     2.7190    -2.1080 hc         1 4Q2       0.039811
     52 H52          3.3160     2.9380    -1.0440 hc         1 4Q2       0.039811
     53 H34         -2.4170    -2.2650     0.2010 hn         1 4Q2       0.339500
     54 H55         -5.1020     3.3080    -0.7830 hn         1 4Q2       0.315500
     55 H54         -4.9490     3.8390     0.8450 hn         1 4Q2       0.315500
@<TRIPOS>BOND
     1     1     2 1   
     2     1    23 1   
     3     1    30 1   
     4     1    31 1   
     5     2     3 1   
     6     2    32 1   
     7     2    33 1   
     8     3    17 2   
     9     3    20 1   
    10     4    23 ar  
    11     4    24 ar  
    12     4    34 1   
    13     5    12 1   
    14     5    24 ar  
    15     5    25 ar  
    16     6    21 1   
    17     6    26 1   
    18     6    27 2   
    19     7     8 1   
    20     7    16 1   
    21     7    26 1   
    22     7    35 1   
    23     8     9 1   
    24     8    11 1   
    25     8    36 1   
    26     9    10 1   
    27     9    37 1   
    28     9    38 1   
    29    10    26 1   
    30    10    39 1   
    31    10    40 1   
    32    11    41 1   
    33    11    42 1   
    34    11    43 1   
    35    12    13 1   
    36    12    14 1   
    37    12    15 1   
    38    13    44 1   
    39    13    45 1   
    40    13    46 1   
    41    14    47 1   
    42    14    48 1   
    43    14    49 1   
    44    15    50 1   
    45    15    51 1   
    46    15    52 1   
    47    16    28 2   
    48    16    29 1   
    49    17    18 1   
    50    17    22 1   
    51    18    19 1   
    52    19    20 2   
    53    19    21 1   
    54    21    53 1   
    55    22    23 ar  
    56    22    25 ar  
    57    29    54 1   
    58    29    55 1   
@<TRIPOS>SUBSTRUCTURE
     1 4Q2         1 TEMP              0 ****  ****    0 ROOT
