@<TRIPOS>MOLECULE
4Q3
   65    69     1     0     0
SMALL
No Charge or Current Charge


@<TRIPOS>ATOM
      1 C15          1.4390     0.6830    -0.0450 ca         1 4Q3      -0.158000
      2 C17          3.4430    -0.7850    -0.0640 cc         1 4Q3      -0.089000
      3 O1           6.3400     2.0140    -1.6140 o          1 4Q3      -0.584100
      4 C20          7.1680     1.2210    -1.1930 c          1 4Q3       0.611100
      5 C21          8.6640     1.4680    -1.3480 c3         1 4Q3      -0.180100
      6 N2           6.8580     0.0480    -0.5480 ns         1 4Q3      -0.475400
      7 C19          5.6360    -0.4900    -0.2380 cd         1 4Q3       0.376900
      8 C18          4.3810     0.0790    -0.5450 cd         1 4Q3      -0.212000
      9 N3           5.5400    -1.6380     0.3970 nc         1 4Q3      -0.581800
     10 N4           4.1690    -1.8280     0.5090 na         1 4Q3       0.143800
     11 C22          3.6320    -3.0070     1.2350 c3         1 4Q3       0.104300
     12 C24          3.8690    -4.3220     0.4590 c3         1 4Q3      -0.101600
     13 C23          4.1590    -3.0950     2.6860 c3         1 4Q3      -0.101600
     14 C16          2.0030    -0.5890    -0.2420 ca         1 4Q3       0.009000
     15 C9           0.0600     0.9060    -0.2060 ca         1 4Q3       0.325000
     16 N1          -0.4530     2.1810     0.1230 nh         1 4Q3      -0.818400
     17 C14         -1.2760     2.3980     1.3480 c5         1 4Q3       0.230300
     18 C13         -1.3750     3.9260     1.4390 cx         1 4Q3      -0.141700
     19 C12         -2.1010     4.5900     0.2870 cx         1 4Q3      -0.106400
     20 C11         -0.5870     4.5420     0.3200 cx         1 4Q3      -0.141700
     21 C10          0.0420     3.4290    -0.5290 c5         1 4Q3       0.230300
     22 C25          1.1590    -1.6560    -0.5930 ca         1 4Q3      -0.135000
     23 C26         -0.2180    -1.4470    -0.7590 ca         1 4Q3      -0.070000
     24 C8          -0.7760    -0.1570    -0.6490 ca         1 4Q3      -0.096000
     25 N           -2.2150    -0.0340    -0.7090 n          1 4Q3      -0.221400
     26 C7          -2.7890     1.0630    -1.5250 c3         1 4Q3       0.093300
     27 C           -3.0740    -0.7420     0.1700 c          1 4Q3       0.627700
     28 O           -2.6430    -1.4390     1.0820 o          1 4Q3      -0.560100
     29 C1          -4.5450    -0.6610    -0.0820 ca         1 4Q3      -0.184600
     30 C6          -5.3670     0.0130     0.8360 ca         1 4Q3       0.212000
     31 F           -4.8270     0.6080     1.9230 f          1 4Q3      -0.165000
     32 C5          -6.7510     0.1020     0.6230 ca         1 4Q3      -0.155000
     33 C4          -7.3280    -0.4940    -0.5110 ca         1 4Q3      -0.065000
     34 C3          -6.5120    -1.1830    -1.4250 ca         1 4Q3      -0.124000
     35 C2          -5.1260    -1.2700    -1.2120 ca         1 4Q3       0.165000
     36 Cl          -4.1450    -2.1830    -2.3580 cl         1 4Q3      -0.182000
     37 H1           2.0730     1.5010     0.2820 ha         1 4Q3       0.126000
     38 H2           8.8850     2.4080    -1.8650 hc         1 4Q3       0.062700
     39 H3           9.1380     1.4280    -0.3610 hc         1 4Q3       0.062700
     40 H4           9.1170     0.6100    -1.8590 hc         1 4Q3       0.062700
     41 H5           7.6650    -0.4870    -0.2640 hn         1 4Q3       0.328500
     42 H6           4.1840     1.0010    -1.0750 ha         1 4Q3       0.169000
     43 H7           2.5480    -2.8680     1.3150 h1         1 4Q3       0.069700
     44 H8           4.9410    -4.5390     0.3770 hc         1 4Q3       0.048200
     45 H9           3.3850    -5.1640     0.9690 hc         1 4Q3       0.048200
     46 H10          3.4550    -4.2540    -0.5540 hc         1 4Q3       0.048200
     47 H11          5.2410    -3.2720     2.7040 hc         1 4Q3       0.048200
     48 H12          3.9520    -2.1630     3.2260 hc         1 4Q3       0.048200
     49 H13          3.6690    -3.9150     3.2240 hc         1 4Q3       0.048200
     50 H14         -2.2640     1.9260     1.2690 h1         1 4Q3       0.053200
     51 H15         -0.7760     1.9740     2.2300 h1         1 4Q3       0.053200
     52 H16         -1.3960     4.4160     2.4100 hc         1 4Q3       0.096200
     53 H17         -2.6230     3.9640    -0.4330 hc         1 4Q3       0.075700
     54 H18         -2.5780     5.5480     0.4770 hc         1 4Q3       0.075700
     55 H19         -0.0470     5.4690     0.4940 hc         1 4Q3       0.096200
     56 H20          1.1390     3.4830    -0.5060 h1         1 4Q3       0.053200
     57 H21         -0.2700     3.4840    -1.5820 h1         1 4Q3       0.053200
     58 H22          1.5660    -2.6510    -0.7480 ha         1 4Q3       0.122000
     59 H23         -0.8550    -2.2920    -1.0160 ha         1 4Q3       0.124000
     60 H24         -3.4540     0.6520    -2.2930 h1         1 4Q3       0.048367
     61 H25         -3.3560     1.7490    -0.8850 h1         1 4Q3       0.048367
     62 H26         -1.9900     1.6200    -2.0290 h1         1 4Q3       0.048367
     63 H27         -7.3740     0.6360     1.3360 ha         1 4Q3       0.140000
     64 H28         -8.4010    -0.4280    -0.6790 ha         1 4Q3       0.125000
     65 H29         -6.9550    -1.6570    -2.2980 ha         1 4Q3       0.138000
@<TRIPOS>BOND
     1     1    14 ar  
     2     1    15 ar  
     3     1    37 1   
     4     2     8 2   
     5     2    10 1   
     6     2    14 1   
     7     3     4 2   
     8     4     5 1   
     9     4     6 1   
    10     5    38 1   
    11     5    39 1   
    12     5    40 1   
    13     6     7 1   
    14     6    41 1   
    15     7     8 1   
    16     7     9 2   
    17     8    42 1   
    18     9    10 1   
    19    10    11 1   
    20    11    12 1   
    21    11    13 1   
    22    11    43 1   
    23    12    44 1   
    24    12    45 1   
    25    12    46 1   
    26    13    47 1   
    27    13    48 1   
    28    13    49 1   
    29    14    22 ar  
    30    15    16 1   
    31    15    24 ar  
    32    16    17 1   
    33    16    21 1   
    34    17    18 1   
    35    17    50 1   
    36    17    51 1   
    37    18    19 1   
    38    18    20 1   
    39    18    52 1   
    40    19    20 1   
    41    19    53 1   
    42    19    54 1   
    43    20    21 1   
    44    20    55 1   
    45    21    56 1   
    46    21    57 1   
    47    22    23 ar  
    48    22    58 1   
    49    23    24 ar  
    50    23    59 1   
    51    24    25 1   
    52    25    26 1   
    53    25    27 1   
    54    26    60 1   
    55    26    61 1   
    56    26    62 1   
    57    27    28 2   
    58    27    29 1   
    59    29    30 ar  
    60    29    35 ar  
    61    30    31 1   
    62    30    32 ar  
    63    32    33 ar  
    64    32    63 1   
    65    33    34 ar  
    66    33    64 1   
    67    34    35 ar  
    68    34    65 1   
    69    35    36 1   
@<TRIPOS>SUBSTRUCTURE
     1 4Q3         1 TEMP              0 ****  ****    0 ROOT
