@<TRIPOS>MOLECULE
4Q3
   65    69     1     0     0
SMALL
abcg2


@<TRIPOS>ATOM
      1 C15          1.3670     0.6920     0.0890 ca         1 4Q3      -0.158000
      2 C17          3.3780    -0.6710    -0.2770 cc         1 4Q3      -0.089000
      3 O1           6.4380     1.8360    -1.9820 o          1 4Q3      -0.584100
      4 C20          7.2250     0.9890    -1.5970 c          1 4Q3       0.611100
      5 C21          8.7150     1.1100    -1.7830 c3         1 4Q3      -0.180100
      6 N2           6.8390    -0.1310    -0.9380 ns         1 4Q3      -0.475400
      7 C19          5.5420    -0.4760    -0.5830 cd         1 4Q3       0.376900
      8 C18          4.3190     0.1510    -0.8690 cd         1 4Q3      -0.212000
      9 N3           5.3690    -1.5740     0.1260 nc         1 4Q3      -0.581800
     10 N4           4.0520    -1.6870     0.3000 na         1 4Q3       0.143800
     11 C22          3.5520    -2.7280     1.1940 c3         1 4Q3       0.104300
     12 C24          3.9030    -4.1070     0.6590 c3         1 4Q3      -0.101600
     13 C23          4.0640    -2.5050     2.6100 c3         1 4Q3      -0.101600
     14 C16          1.9190    -0.5270    -0.2810 ca         1 4Q3       0.009000
     15 C9          -0.0180     0.9240     0.0850 ca         1 4Q3       0.325000
     16 N1          -0.5160     2.1630     0.4340 nh         1 4Q3      -0.818400
     17 C14         -1.6770     2.3420     1.3070 c5         1 4Q3       0.230300
     18 C13         -1.7810     3.8380     1.4600 cx         1 4Q3      -0.141700
     19 C12         -1.7190     4.6400     0.1970 cx         1 4Q3      -0.106400
     20 C11         -0.4810     4.4260     1.0120 cx         1 4Q3      -0.141700
     21 C10          0.4070     3.2750     0.6230 c5         1 4Q3       0.230300
     22 C25          1.0850    -1.5690    -0.6790 ca         1 4Q3      -0.135000
     23 C26         -0.2800    -1.3570    -0.7070 ca         1 4Q3      -0.070000
     24 C8          -0.8390    -0.1410    -0.3410 ca         1 4Q3      -0.096000
     25 N           -2.2390     0.0250    -0.5070 n          1 4Q3      -0.221400
     26 C7          -2.6580     0.8670    -1.6190 c3         1 4Q3       0.093300
     27 C           -3.0820    -0.7190     0.2400 c          1 4Q3       0.627700
     28 O           -2.7270    -1.4190     1.1700 o          1 4Q3      -0.560100
     29 C1          -4.5370    -0.6480    -0.1250 ca         1 4Q3      -0.184600
     30 C6          -5.4180     0.0770     0.6590 ca         1 4Q3       0.212000
     31 F           -4.9100     0.7870     1.6740 f          1 4Q3      -0.165000
     32 C5          -6.7770     0.1120     0.4240 ca         1 4Q3      -0.155000
     33 C4          -7.2770    -0.6280    -0.6370 ca         1 4Q3      -0.065000
     34 C3          -6.4350    -1.3830    -1.4410 ca         1 4Q3      -0.124000
     35 C2          -5.0760    -1.3850    -1.1720 ca         1 4Q3       0.165000
     36 CL          -4.0160    -2.3290    -2.1610 cl         1 4Q3      -0.182000
     37 H1           2.0390     1.4730     0.4150 ha         1 4Q3       0.126000
     38 H2           8.9350     1.7710    -2.6180 hc         1 4Q3       0.062700
     39 H3           9.1610     1.5390    -0.8840 hc         1 4Q3       0.062700
     40 H4           9.1910     0.1450    -1.9580 hc         1 4Q3       0.062700
     41 H5           7.5520    -0.7820    -0.6460 hn         1 4Q3       0.328500
     42 H6           4.1250     1.0380    -1.4430 ha         1 4Q3       0.169000
     43 H7           2.4680    -2.6190     1.2010 h1         1 4Q3       0.069700
     44 H8           4.9820    -4.2590     0.6380 hc         1 4Q3       0.048200
     45 H9           3.4660    -4.8720     1.3010 hc         1 4Q3       0.048200
     46 H10          3.5150    -4.2530    -0.3490 hc         1 4Q3       0.048200
     47 H11          5.1460    -2.6290     2.6670 hc         1 4Q3       0.048200
     48 H12          3.8120    -1.5060     2.9680 hc         1 4Q3       0.048200
     49 H13          3.6060    -3.2280     3.2840 hc         1 4Q3       0.048200
     50 H14         -2.5780     1.9230     0.8700 h1         1 4Q3       0.053200
     51 H15         -1.5240     1.8690     2.2850 h1         1 4Q3       0.053200
     52 H16         -2.3200     4.2240     2.3150 hc         1 4Q3       0.096200
     53 H17         -1.8180     4.1310    -0.7560 hc         1 4Q3       0.075700
     54 H18         -2.1550     5.6300     0.2200 hc         1 4Q3       0.075700
     55 H19         -0.0280     5.2630     1.5270 hc         1 4Q3       0.096200
     56 H20          1.1300     3.0940     1.4310 h1         1 4Q3       0.053200
     57 H21          0.9750     3.4510    -0.2950 h1         1 4Q3       0.053200
     58 H22          1.4920    -2.5170    -1.0060 ha         1 4Q3       0.122000
     59 H23         -0.9350    -2.1450    -1.0590 ha         1 4Q3       0.124000
     60 H24         -2.6230     0.3220    -2.5630 h1         1 4Q3       0.048367
     61 H25         -3.6640     1.2480    -1.4660 h1         1 4Q3       0.048367
     62 H26         -1.9880     1.7210    -1.6840 h1         1 4Q3       0.048367
     63 H27         -7.4260     0.7050     1.0540 ha         1 4Q3       0.140000
     64 H28         -8.3390    -0.6170    -0.8420 ha         1 4Q3       0.125000
     65 H29         -6.8310    -1.9620    -2.2630 ha         1 4Q3       0.138000
@<TRIPOS>BOND
     1     1    14 ar  
     2     1    15 ar  
     3     1    37 1   
     4     2     8 2   
     5     2    10 1   
     6     2    14 1   
     7     3     4 2   
     8     4     5 1   
     9     4     6 1   
    10     5    38 1   
    11     5    39 1   
    12     5    40 1   
    13     6     7 1   
    14     6    41 1   
    15     7     8 1   
    16     7     9 2   
    17     8    42 1   
    18     9    10 1   
    19    10    11 1   
    20    11    12 1   
    21    11    13 1   
    22    11    43 1   
    23    12    44 1   
    24    12    45 1   
    25    12    46 1   
    26    13    47 1   
    27    13    48 1   
    28    13    49 1   
    29    14    22 ar  
    30    15    16 1   
    31    15    24 ar  
    32    16    17 1   
    33    16    21 1   
    34    17    18 1   
    35    17    50 1   
    36    17    51 1   
    37    18    19 1   
    38    18    20 1   
    39    18    52 1   
    40    19    20 1   
    41    19    53 1   
    42    19    54 1   
    43    20    21 1   
    44    20    55 1   
    45    21    56 1   
    46    21    57 1   
    47    22    23 ar  
    48    22    58 1   
    49    23    24 ar  
    50    23    59 1   
    51    24    25 1   
    52    25    26 1   
    53    25    27 1   
    54    26    60 1   
    55    26    61 1   
    56    26    62 1   
    57    27    28 2   
    58    27    29 1   
    59    29    30 ar  
    60    29    35 ar  
    61    30    31 1   
    62    30    32 ar  
    63    32    33 ar  
    64    32    63 1   
    65    33    34 ar  
    66    33    64 1   
    67    34    35 ar  
    68    34    65 1   
    69    35    36 1   
@<TRIPOS>SUBSTRUCTURE
     1 4Q3         1 TEMP              0 ****  ****    0 ROOT
