@<TRIPOS>MOLECULE
4Q4
   55    58     1     0     0
SMALL
No Charge or Current Charge


@<TRIPOS>ATOM
      1 C10         24.8780    20.0070     2.2270 c6         1 4Q4       0.202800
      2 C13         29.0490    21.0720     3.1820 c5         1 4Q4       0.125300
      3 C15         27.9670    21.8260     4.0270 c5         1 4Q4       0.142500
      4 C17         21.3390    21.1990     2.7830 ca         1 4Q4       0.269300
      5 C21         20.4390    20.2060     4.6740 cp         1 4Q4       0.304500
      6 C22         19.2170    19.9110     5.4790 cp         1 4Q4      -0.108500
      7 C24         17.0500    18.7740     5.6900 ca         1 4Q4      -0.106000
      8 C26         17.8660    20.1600     7.5160 ca         1 4Q4       0.111000
      9 C28         19.0290    20.4630     6.7740 ca         1 4Q4       0.130000
     10 C02         21.7520    19.7300     5.0290 ca         1 4Q4       0.379300
     11 C04         22.6520    20.7530     3.1720 ca         1 4Q4       0.567900
     12 C06         24.3510    22.4360     2.4080 c6         1 4Q4       0.202800
     13 C07         25.5520    22.6240     3.3640 c6         1 4Q4      -0.092900
     14 C08         26.7350    21.6420     3.0640 c5         1 4Q4      -0.074000
     15 C09         26.1050    20.2040     3.1540 c6         1 4Q4      -0.092900
     16 C11         27.4400    21.9110     1.6830 c5         1 4Q4       0.153600
     17 C14         30.5220    21.2610     3.6070 c3         1 4Q4      -0.100100
     18 C23         18.2050    19.0730     4.9480 ca         1 4Q4      -0.070000
     19 C25         16.8840    19.3140     6.9750 ca         1 4Q4      -0.092000
     20 N03         22.8540    20.0090     4.2850 nb         1 4Q4      -0.727000
     21 N05         23.8410    21.0440     2.4640 nh         1 4Q4      -0.758300
     22 N16         28.3190    23.2460     4.2770 n8         1 4Q4      -0.997200
     23 N20         20.2340    20.9230     3.5400 nb         1 4Q4      -0.589000
     24 O12         28.8470    21.5870     1.8490 os         1 4Q4      -0.462000
     25 O19         20.2890    21.2670     0.5360 oh         1 4Q4      -0.636000
     26 Cl27        17.6110    20.8330     9.1270 cl         1 4Q4      -0.176000
     27 Cl29        20.2310    21.5690     7.4530 cl         1 4Q4      -0.173000
     28 H1          24.4630    19.0000     2.3850 h1         1 4Q4       0.057200
     29 H2          25.1990    20.0410     1.1750 h1         1 4Q4       0.057200
     30 H3          28.8560    19.9920     3.1710 h1         1 4Q4       0.050700
     31 H4          27.7970    21.3400     5.0000 h1         1 4Q4       0.075700
     32 H5          16.2860    18.1240     5.2690 ha         1 4Q4       0.124000
     33 H6          22.8030    18.1140     6.0370 hc         1 4Q4       0.056700
     34 H7          22.3630    19.4640     7.0930 hc         1 4Q4       0.056700
     35 H8          21.1290    18.3080     6.5600 hc         1 4Q4       0.056700
     36 H9          24.6520    22.6840     1.3790 h1         1 4Q4       0.057200
     37 H10         23.5610    23.1490     2.6860 h1         1 4Q4       0.057200
     38 H11         25.8880    23.6670     3.2890 hc         1 4Q4       0.060950
     39 H12         25.2130    22.4890     4.4000 hc         1 4Q4       0.060950
     40 H13         25.7990    20.0060     4.1910 hc         1 4Q4       0.060950
     41 H14         26.8370    19.4260     2.9060 hc         1 4Q4       0.060950
     42 H15         27.3680    22.9680     1.3930 h1         1 4Q4       0.043700
     43 H16         27.0190    21.3110     0.8650 h1         1 4Q4       0.043700
     44 H17         30.6710    20.9500     4.6480 hc         1 4Q4       0.043033
     45 H18         31.1860    20.6520     2.9820 hc         1 4Q4       0.043033
     46 H19         30.8440    22.3050     3.5140 hc         1 4Q4       0.043033
     47 H20         22.0430    22.2730     1.0280 h1         1 4Q4       0.031200
     48 H21         20.5850    22.9350     1.7590 h1         1 4Q4       0.031200
     49 H22         18.3230    18.6490     3.9520 ha         1 4Q4       0.135000
     50 H23         15.9900    19.0840     7.5500 ha         1 4Q4       0.131000
     51 H24         29.1700    23.2830     4.8490 hn         1 4Q4       0.401000
     52 H25         28.6210    23.6520     3.3850 hn         1 4Q4       0.401000
     53 H27         20.1400    21.8620    -0.2330 ho         1 4Q4       0.441000
     54 C18         21.0890    21.9960     1.4910 c3         1 4Q4       0.128300
     55 C01         22.0240    18.8570     6.2460 c3         1 4Q4      -0.144400
@<TRIPOS>BOND
     1     1    15 1   
     2     1    21 1   
     3     1    28 1   
     4     1    29 1   
     5     2     3 1   
     6     2    17 1   
     7     2    24 1   
     8     2    30 1   
     9     3    14 1   
    10     3    22 1   
    11     3    31 1   
    12     4    11 ar  
    13     4    23 ar  
    14     4    54 1   
    15     5     6 1   
    16     5    10 ar  
    17     5    23 ar  
    18     6     9 ar  
    19     6    18 ar  
    20     7    18 ar  
    21     7    19 ar  
    22     7    32 1   
    23     8     9 ar  
    24     8    19 ar  
    25     8    26 1   
    26     9    27 1   
    27    10    20 ar  
    28    10    55 1   
    29    11    20 ar  
    30    11    21 1   
    31    12    13 1   
    32    12    21 1   
    33    12    36 1   
    34    12    37 1   
    35    13    14 1   
    36    13    38 1   
    37    13    39 1   
    38    14    15 1   
    39    14    16 1   
    40    15    40 1   
    41    15    41 1   
    42    16    24 1   
    43    16    42 1   
    44    16    43 1   
    45    17    44 1   
    46    17    45 1   
    47    17    46 1   
    48    18    49 1   
    49    19    50 1   
    50    22    51 1   
    51    22    52 1   
    52    25    53 1   
    53    25    54 1   
    54    33    55 1   
    55    34    55 1   
    56    35    55 1   
    57    47    54 1   
    58    48    54 1   
@<TRIPOS>SUBSTRUCTURE
     1 4Q4         1 TEMP              0 ****  ****    0 ROOT
