@<TRIPOS>MOLECULE
4Q4
   55    58     1     0     0
SMALL
abcg2


@<TRIPOS>ATOM
      1 C10         24.9560    19.8110     2.0850 c6         1 4Q4       0.202800
      2 C13         28.8070    21.1930     3.6330 c5         1 4Q4       0.125300
      3 C15         27.5300    21.8730     4.1620 c5         1 4Q4       0.142500
      4 C17         21.5270    21.1590     2.7010 ca         1 4Q4       0.269300
      5 C21         20.7160    20.1430     4.5900 cp         1 4Q4       0.304500
      6 C22         19.5660    20.0140     5.5130 cp         1 4Q4      -0.108500
      7 C24         17.2370    19.4540     5.8440 ca         1 4Q4      -0.106000
      8 C26         18.5470    20.2150     7.6970 ca         1 4Q4       0.111000
      9 C28         19.6550    20.3450     6.8650 ca         1 4Q4       0.130000
     10 C02         21.8770    19.3800     4.6940 ca         1 4Q4       0.379300
     11 C04         22.7750    20.5170     2.9070 ca         1 4Q4       0.567900
     12 C06         24.3230    22.1250     1.9080 c6         1 4Q4       0.202800
     13 C07         25.3370    22.5180     2.9780 c6         1 4Q4      -0.092900
     14 C08         26.5370    21.5750     3.0180 c5         1 4Q4      -0.074000
     15 C09         26.0230    20.1280     3.1270 c6         1 4Q4      -0.092900
     16 C11         27.4620    21.7410     1.8060 c5         1 4Q4       0.153600
     17 C14         30.1150    21.7570     4.1430 c3         1 4Q4      -0.100100
     18 C23         18.3390    19.5820     5.0160 ca         1 4Q4      -0.070000
     19 C25         17.3380    19.7650     7.1900 ca         1 4Q4      -0.092000
     20 N03         22.8840    19.6030     3.8570 nb         1 4Q4      -0.727000
     21 N05         23.8530    20.7560     2.0860 nh         1 4Q4      -0.758300
     22 N16         27.6250    23.2940     4.4460 n8         1 4Q4      -0.997200
     23 N20         20.5540    20.9770     3.5640 nb         1 4Q4      -0.589000
     24 O12         28.7470    21.3080     2.2130 os         1 4Q4      -0.462000
     25 O19         19.8860    21.7810     1.1110 oh         1 4Q4      -0.636000
     26 CL27        18.6550    20.6260     9.3670 cl         1 4Q4      -0.176000
     27 CL29        21.1350    20.9570     7.5020 cl         1 4Q4      -0.173000
     28 H1          24.5720    18.8040     2.2330 h1         1 4Q4       0.057200
     29 H2          25.3930    19.8340     1.0820 h1         1 4Q4       0.057200
     30 H3          28.7680    20.1290     3.9050 h1         1 4Q4       0.050700
     31 H4          27.2090    21.3820     5.0850 h1         1 4Q4       0.075700
     32 H5          16.2940    19.1070     5.4450 ha         1 4Q4       0.124000
     33 H6          22.5320    17.4240     5.2130 hc         1 4Q4       0.056700
     34 H7          22.7410    18.6070     6.4940 hc         1 4Q4       0.056700
     35 H8          21.1370    17.9650     6.1510 hc         1 4Q4       0.056700
     36 H9          24.7610    22.2120     0.9090 h1         1 4Q4       0.057200
     37 H10         23.4880    22.8230     1.9390 h1         1 4Q4       0.057200
     38 H11         25.6580    23.5440     2.7930 hc         1 4Q4       0.060950
     39 H12         24.8400    22.5180     3.9540 hc         1 4Q4       0.060950
     40 H13         25.6030    19.9700     4.1240 hc         1 4Q4       0.060950
     41 H14         26.8380    19.4090     3.0120 hc         1 4Q4       0.060950
     42 H15         27.4950    22.7940     1.4890 h1         1 4Q4       0.043700
     43 H16         27.1470    21.1580     0.9360 h1         1 4Q4       0.043700
     44 H17         30.1750    21.6510     5.2280 hc         1 4Q4       0.043033
     45 H18         30.9610    21.2170     3.7160 hc         1 4Q4       0.043033
     46 H19         30.2300    22.8130     3.8980 hc         1 4Q4       0.043033
     47 H20         21.9180    21.7110     0.6810 h1         1 4Q4       0.031200
     48 H21         21.4110    23.0510     1.7040 h1         1 4Q4       0.031200
     49 H22         18.2600    19.3340     3.9660 ha         1 4Q4       0.135000
     50 H23         16.4840    19.6660     7.8460 ha         1 4Q4       0.131000
     51 H24         28.2700    23.4460     5.2100 hn         1 4Q4       0.401000
     52 H25         28.0040    23.8050     3.6570 hn         1 4Q4       0.401000
     53 H27         19.6890    22.3790     0.3850 ho         1 4Q4       0.441000
     54 C18         21.2230    21.9910     1.4820 c3         1 4Q4       0.128300
     55 C01         22.0710    18.2860     5.6950 c3         1 4Q4      -0.144400
@<TRIPOS>BOND
     1     1    15 1   
     2     1    21 1   
     3     1    28 1   
     4     1    29 1   
     5     2     3 1   
     6     2    17 1   
     7     2    24 1   
     8     2    30 1   
     9     3    14 1   
    10     3    22 1   
    11     3    31 1   
    12     4    11 ar  
    13     4    23 ar  
    14     4    54 1   
    15     5     6 1   
    16     5    10 ar  
    17     5    23 ar  
    18     6     9 ar  
    19     6    18 ar  
    20     7    18 ar  
    21     7    19 ar  
    22     7    32 1   
    23     8     9 ar  
    24     8    19 ar  
    25     8    26 1   
    26     9    27 1   
    27    10    20 ar  
    28    10    55 1   
    29    11    20 ar  
    30    11    21 1   
    31    12    13 1   
    32    12    21 1   
    33    12    36 1   
    34    12    37 1   
    35    13    14 1   
    36    13    38 1   
    37    13    39 1   
    38    14    15 1   
    39    14    16 1   
    40    15    40 1   
    41    15    41 1   
    42    16    24 1   
    43    16    42 1   
    44    16    43 1   
    45    17    44 1   
    46    17    45 1   
    47    17    46 1   
    48    18    49 1   
    49    19    50 1   
    50    22    51 1   
    51    22    52 1   
    52    25    53 1   
    53    25    54 1   
    54    33    55 1   
    55    34    55 1   
    56    35    55 1   
    57    47    54 1   
    58    48    54 1   
@<TRIPOS>SUBSTRUCTURE
     1 4Q4         1 TEMP              0 ****  ****    0 ROOT
