@<TRIPOS>MOLECULE
4Q5
  118   119     1     0     0
SMALL
No Charge or Current Charge


@<TRIPOS>ATOM
      1 N            8.2390    -4.1490     0.1180 n7         1 4Q5      -0.879400
      2 CAH          8.7240    -5.1440     1.0950 c3         1 4Q5       0.165100
      3 CA           7.6340    -2.8720     0.6400 c3         1 4Q5       0.119500
      4 CB           8.6700    -1.9340     1.3540 c3         1 4Q5      -0.091700
      5 CG1          8.8450    -2.2410     2.8630 c3         1 4Q5      -0.090600
      6 CG2         10.0360    -1.8120     0.6300 c3         1 4Q5      -0.090600
      7 C            6.8580    -2.0750    -0.4750 c          1 4Q5       0.608100
      8 O            7.3700    -1.7310    -1.5360 o          1 4Q5      -0.593100
      9 NAD          5.5360    -1.7970    -0.1860 ns         1 4Q5      -0.507900
     10 CAE          4.6060    -1.0450    -1.0610 c3         1 4Q5       0.038700
     11 CAF          3.8440     0.0020    -0.1780 c          1 4Q5       0.590100
     12 OAP          3.4480    -0.3220     0.9380 o          1 4Q5      -0.624100
     13 CAM          3.6320    -2.0180    -1.8030 c3         1 4Q5      -0.070700
     14 CAO          2.5950    -1.2900    -2.6930 c3         1 4Q5      -0.090100
     15 CAN          4.3780    -3.0950    -2.6310 c3         1 4Q5      -0.090100
     16 NAG          3.5950     1.3110    -0.6800 n          1 4Q5      -0.395800
     17 CAW          1.4290     2.5650    -0.7390 c3         1 4Q5       0.171300
     18 CAS          3.5320     3.5240     0.6440 c3         1 4Q5      -0.054700
     19 CAR          2.7400     2.2760     0.0820 c3         1 4Q5       0.102700
     20 CAX          0.1630     2.8390     0.1290 c3         1 4Q5      -0.178400
     21 CAY         -1.1400     2.1750    -0.3490 c          1 4Q5       0.605100
     22 OBA          1.6610     3.6880    -1.6210 os         1 4Q5      -0.475000
     23 OBC         -1.1320     1.2690    -1.1700 o          1 4Q5      -0.614100
     24 CAT          4.7400     3.1440     1.5650 c3         1 4Q5      -0.074400
     25 CAU          6.0180     2.6260     0.8650 c3         1 4Q5      -0.085100
     26 CAV          2.6190     4.5150     1.4160 c3         1 4Q5      -0.088100
     27 CAQ          4.2220     1.7950    -1.9390 c3         1 4Q5       0.080300
     28 CBB          0.6690     3.9120    -2.6400 c3         1 4Q5       0.151900
     29 CBF         -3.7620     2.8430     2.0480 c5         1 4Q5      -0.094400
     30 CBQ         -5.8040     1.6600    -3.6040 c3         1 4Q5      -0.080100
     31 CBI         -5.4270     1.5240    -2.1050 c3         1 4Q5      -0.148700
     32 CBP         -3.1920     4.5030    -2.2150 c3         1 4Q5       0.148900
     33 CBJ         -5.3440     0.0420    -1.7080 c          1 4Q5       0.595100
     34 NAZ         -2.3620     2.6590     0.1680 n          1 4Q5      -0.410800
     35 CBD         -3.6730     2.0730    -0.2320 c5         1 4Q5       0.095700
     36 CBE         -4.6430     2.7530     0.7840 c5         1 4Q5      -0.090400
     37 CBG         -2.4450     3.3960     1.4530 c5         1 4Q5       0.106000
     38 CBH         -4.1100     2.2650    -1.7360 c3         1 4Q5       0.168300
     39 OBO         -4.3480     3.6630    -2.0440 os         1 4Q5      -0.464000
     40 OBR         -4.5330    -0.7300    -2.1990 o          1 4Q5      -0.597100
     41 OBT         -7.9240    -0.9360     1.5540 oh         1 4Q5      -0.657000
     42 CBS         -7.2850    -2.5720    -1.0050 c3         1 4Q5      -0.116100
     43 NBK         -6.2410    -0.3510    -0.7410 ns         1 4Q5      -0.504900
     44 CBL         -6.3250    -1.6990    -0.1630 c3         1 4Q5       0.077700
     45 CBM         -6.6750    -1.6200     1.3550 c3         1 4Q5       0.205600
     46 CBU         -7.8240    -3.8000     2.1210 ca         1 4Q5      -0.102000
     47 CBY         -5.4670    -3.4630     2.6160 ca         1 4Q5      -0.102000
     48 CBV         -7.7750    -5.0540     2.7550 ca         1 4Q5      -0.107500
     49 CBX         -5.4200    -4.7160     3.2500 ca         1 4Q5      -0.107500
     50 CBN         -6.6670    -2.9890     2.0460 ca         1 4Q5      -0.115300
     51 CBW         -6.5740    -5.5130     3.3210 ca         1 4Q5      -0.106000
     52 H11          8.9570    -6.0910     0.5900 h1         1 4Q5       0.028033
     53 H12          9.6410    -4.8030     1.5910 h1         1 4Q5       0.028033
     54 H13          7.9630    -5.3470     1.8620 h1         1 4Q5       0.028033
     55 H8           6.8670    -3.1330     1.3830 h1         1 4Q5       0.057700
     56 H4           8.2280    -0.9290     1.3290 hc         1 4Q5       0.055700
     57 H5           9.3630    -3.1890     3.0330 hc         1 4Q5       0.037200
     58 H6           9.4320    -1.4510     3.3470 hc         1 4Q5       0.037200
     59 H7           7.8710    -2.2860     3.3670 hc         1 4Q5       0.037200
     60 H1           9.9000    -1.5450    -0.4250 hc         1 4Q5       0.037200
     61 H2          10.6460    -1.0280     1.0950 hc         1 4Q5       0.037200
     62 H3          10.6020    -2.7490     0.6800 hc         1 4Q5       0.037200
     63 H9           9.0000    -3.9120    -0.5320 hn         1 4Q5       0.436000
     64 H14          5.1910    -2.1060     0.7170 hn         1 4Q5       0.324500
     65 H15          5.1990    -0.5120    -1.8110 h1         1 4Q5       0.092700
     66 H16          3.0610    -2.5510    -1.0310 hc         1 4Q5       0.062700
     67 H17          3.0880    -0.7600    -3.5160 hc         1 4Q5       0.038700
     68 H18          1.8950    -2.0110    -3.1330 hc         1 4Q5       0.038700
     69 H19          2.0020    -0.5710    -2.1160 hc         1 4Q5       0.038700
     70 H20          4.9980    -3.7320    -1.9900 hc         1 4Q5       0.038700
     71 H21          3.6660    -3.7470    -3.1510 hc         1 4Q5       0.038700
     72 H22          5.0250    -2.6280    -3.3840 hc         1 4Q5       0.038700
     73 H36          1.2470     1.6600    -1.3330 h1         1 4Q5       0.066700
     74 H27          3.9370     4.0870    -0.2050 hc         1 4Q5       0.058700
     75 H26          2.3850     1.7560     0.9780 h1         1 4Q5       0.086700
     76 H40          0.3130     2.4960     1.1570 hc         1 4Q5       0.071700
     77 H41         -0.0220     3.9080     0.2770 hc         1 4Q5       0.071700
     78 H31          5.0450     4.0320     2.1320 hc         1 4Q5       0.037700
     79 H32          4.4150     2.4090     2.3120 hc         1 4Q5       0.037700
     80 H33          5.9120     1.5900     0.5290 hc         1 4Q5       0.031367
     81 H34          6.2760     3.2540     0.0040 hc         1 4Q5       0.031367
     82 H35          6.8620     2.6510     1.5640 hc         1 4Q5       0.031367
     83 H28          3.2060     5.3250     1.8640 hc         1 4Q5       0.035367
     84 H29          1.8990     4.9950     0.7450 hc         1 4Q5       0.035367
     85 H30          2.0740     4.0060     2.2200 hc         1 4Q5       0.035367
     86 H23          3.8160     1.2490    -2.7970 h1         1 4Q5       0.047033
     87 H24          4.0280     2.8630    -2.0900 h1         1 4Q5       0.047033
     88 H25          5.3090     1.6530    -1.8970 h1         1 4Q5       0.047033
     89 H37         -0.2880     4.2130    -2.1980 h1         1 4Q5       0.033367
     90 H38          0.9940     4.7140    -3.3150 h1         1 4Q5       0.033367
     91 H39          0.5110     3.0060    -3.2390 h1         1 4Q5       0.033367
     92 H44         -4.1840     3.5010     2.8160 hc         1 4Q5       0.053200
     93 H45         -3.6110     1.8560     2.5010 hc         1 4Q5       0.053200
     94 H54         -6.7270     1.1080    -3.8200 hc         1 4Q5       0.045033
     95 H55         -5.9710     2.7090    -3.8770 hc         1 4Q5       0.045033
     96 H56         -5.0090     1.2610    -4.2460 hc         1 4Q5       0.045033
     97 H53         -6.2380     1.9830    -1.5270 hc         1 4Q5       0.058700
     98 H50         -3.4910     5.4740    -2.6280 h1         1 4Q5       0.031700
     99 H51         -2.6880     4.6970    -1.2610 h1         1 4Q5       0.031700
    100 H52         -2.4770     4.0460    -2.9100 h1         1 4Q5       0.031700
    101 H48         -3.6290     0.9940    -0.0280 h1         1 4Q5       0.080700
    102 H46         -5.5540     2.1680     0.9510 hc         1 4Q5       0.057700
    103 H47         -4.9530     3.7530     0.4570 hc         1 4Q5       0.057700
    104 H42         -2.5060     4.4780     1.2730 h1         1 4Q5       0.050700
    105 H43         -1.6000     3.2010     2.1250 h1         1 4Q5       0.050700
    106 H49         -3.3160     1.8620    -2.3800 h1         1 4Q5       0.081700
    107 H59         -8.3090    -2.1810    -0.9740 hc         1 4Q5       0.044700
    108 H60         -6.9620    -2.5920    -2.0530 hc         1 4Q5       0.044700
    109 H61         -7.2940    -3.6060    -0.6440 hc         1 4Q5       0.044700
    110 H57         -6.8810     0.3530    -0.3920 hn         1 4Q5       0.318500
    111 H58         -5.3280    -2.1570    -0.2290 h1         1 4Q5       0.091700
    112 H62         -5.8780    -1.0240     1.8230 h1         1 4Q5       0.089700
    113 H64         -8.7630    -3.4710     1.6840 ha         1 4Q5       0.114500
    114 H68         -4.5630    -2.8580     2.5680 ha         1 4Q5       0.114500
    115 H65         -8.6690    -5.6720     2.8060 ha         1 4Q5       0.114500
    116 H67         -4.4890    -5.0700     3.6870 ha         1 4Q5       0.114500
    117 H66         -6.5380    -6.4830     3.8110 ha         1 4Q5       0.114000
    118 H63         -8.6140    -1.4780     1.1190 ho         1 4Q5       0.444000
@<TRIPOS>BOND
     1     1     2 1   
     2     1     3 1   
     3     1    63 1   
     4     2    52 1   
     5     2    53 1   
     6     2    54 1   
     7     3     4 1   
     8     3     7 1   
     9     3    55 1   
    10     4     5 1   
    11     4     6 1   
    12     4    56 1   
    13     5    57 1   
    14     5    58 1   
    15     5    59 1   
    16     6    60 1   
    17     6    61 1   
    18     6    62 1   
    19     7     8 2   
    20     7     9 1   
    21     9    10 1   
    22     9    64 1   
    23    10    11 1   
    24    10    13 1   
    25    10    65 1   
    26    11    12 2   
    27    11    16 1   
    28    13    14 1   
    29    13    15 1   
    30    13    66 1   
    31    14    67 1   
    32    14    68 1   
    33    14    69 1   
    34    15    70 1   
    35    15    71 1   
    36    15    72 1   
    37    16    19 1   
    38    16    27 1   
    39    17    19 1   
    40    17    20 1   
    41    17    22 1   
    42    17    73 1   
    43    18    19 1   
    44    18    24 1   
    45    18    26 1   
    46    18    74 1   
    47    19    75 1   
    48    20    21 1   
    49    20    76 1   
    50    20    77 1   
    51    21    23 2   
    52    21    34 1   
    53    22    28 1   
    54    24    25 1   
    55    24    78 1   
    56    24    79 1   
    57    25    80 1   
    58    25    81 1   
    59    25    82 1   
    60    26    83 1   
    61    26    84 1   
    62    26    85 1   
    63    27    86 1   
    64    27    87 1   
    65    27    88 1   
    66    28    89 1   
    67    28    90 1   
    68    28    91 1   
    69    29    36 1   
    70    29    37 1   
    71    29    92 1   
    72    29    93 1   
    73    30    31 1   
    74    30    94 1   
    75    30    95 1   
    76    30    96 1   
    77    31    33 1   
    78    31    38 1   
    79    31    97 1   
    80    32    39 1   
    81    32    98 1   
    82    32    99 1   
    83    32   100 1   
    84    33    40 2   
    85    33    43 1   
    86    34    35 1   
    87    34    37 1   
    88    35    36 1   
    89    35    38 1   
    90    35   101 1   
    91    36   102 1   
    92    36   103 1   
    93    37   104 1   
    94    37   105 1   
    95    38    39 1   
    96    38   106 1   
    97    41    45 1   
    98    41   118 1   
    99    42    44 1   
   100    42   107 1   
   101    42   108 1   
   102    42   109 1   
   103    43    44 1   
   104    43   110 1   
   105    44    45 1   
   106    44   111 1   
   107    45    50 1   
   108    45   112 1   
   109    46    48 ar  
   110    46    50 ar  
   111    46   113 1   
   112    47    49 ar  
   113    47    50 ar  
   114    47   114 1   
   115    48    51 ar  
   116    48   115 1   
   117    49    51 ar  
   118    49   116 1   
   119    51   117 1   
@<TRIPOS>SUBSTRUCTURE
     1 4Q5         1 TEMP              0 ****  ****    0 ROOT
