@<TRIPOS>MOLECULE
4Q5
  118   119     1     0     0
SMALL
bcc


@<TRIPOS>ATOM
      1 N            9.4060    -2.7290    -0.1260 n7         1 4Q5      -0.824200
      2 CAH         10.1850    -3.6540     0.6700 c3         1 4Q5       0.165100
      3 CA           8.3420    -2.0270     0.5540 c3         1 4Q5       0.119500
      4 CB           8.6910    -0.6300     1.1280 c3         1 4Q5      -0.091700
      5 CG1          9.7240    -0.7210     2.2470 c3         1 4Q5      -0.090600
      6 CG2          9.1590     0.3570     0.0610 c3         1 4Q5      -0.090600
      7 C            7.1460    -1.8850    -0.3890 c          1 4Q5       0.675100
      8 O            7.2750    -1.7620    -1.5960 o          1 4Q5      -0.593100
      9 NAD          5.9490    -1.8690     0.2330 ns         1 4Q5      -0.574900
     10 CAE          4.6890    -1.6520    -0.4390 c3         1 4Q5       0.038700
     11 CAF          3.9950    -0.4820     0.2590 c          1 4Q5       0.657100
     12 OAP          3.7780    -0.5820     1.4620 o          1 4Q5      -0.624100
     13 CAM          3.7790    -2.8920    -0.4040 c3         1 4Q5      -0.070700
     14 CAO          2.4380    -2.5970    -1.0720 c3         1 4Q5      -0.090100
     15 CAN          4.4600    -4.0780    -1.0750 c3         1 4Q5      -0.090100
     16 NAG          3.6520     0.5980    -0.4690 n          1 4Q5      -0.462800
     17 CAW          1.4050     1.5740    -0.3690 c3         1 4Q5       0.148100
     18 CAS          3.5630     3.0260     0.0730 c3         1 4Q5      -0.054700
     19 CAR          2.8610     1.6590     0.1610 c3         1 4Q5       0.102700
     20 CAX          0.3730     1.9130     0.7080 c3         1 4Q5      -0.178400
     21 CAY         -1.0290     1.4760     0.3250 c          1 4Q5       0.672100
     22 OBA          1.2480     2.3940    -1.5060 os         1 4Q5      -0.428600
     23 OBC         -1.2180     0.5210    -0.4200 o          1 4Q5      -0.614100
     24 CAT          4.9250     3.0150     0.7930 c3         1 4Q5      -0.074400
     25 CAU          6.1030     2.3630     0.0740 c3         1 4Q5      -0.085100
     26 CAV          2.7050     4.1390     0.6750 c3         1 4Q5      -0.088100
     27 CAQ          3.9030     0.6880    -1.9000 c3         1 4Q5       0.080300
     28 CBB          0.6560     1.8180    -2.6480 c3         1 4Q5       0.128700
     29 CBF         -3.2650     2.8740     2.6920 c5         1 4Q5      -0.094400
     30 CBQ         -5.5160     2.7510    -2.7130 c3         1 4Q5      -0.080100
     31 CBI         -5.2010     2.1670    -1.3360 c3         1 4Q5      -0.148700
     32 CBP         -2.3890     4.1700    -1.7940 c3         1 4Q5       0.125700
     33 CBJ         -5.4840     0.6750    -1.3670 c          1 4Q5       0.662100
     34 NAZ         -2.0490     2.1820     0.8430 n          1 4Q5      -0.477800
     35 CBD         -3.4370     1.8920     0.4780 c5         1 4Q5       0.095700
     36 CBE         -4.2620     2.5890     1.5730 c5         1 4Q5      -0.090400
     37 CBG         -1.9730     3.1420     1.9360 c5         1 4Q5       0.106000
     38 CBH         -3.7400     2.4090    -0.9340 c3         1 4Q5       0.145100
     39 OBO         -3.4730     3.7930    -0.9820 os         1 4Q5      -0.417600
     40 OBR         -4.8520    -0.0760    -2.0990 o          1 4Q5      -0.597100
     41 OBT         -8.3160    -0.6260     1.4240 oh         1 4Q5      -0.594800
     42 CBS         -8.1160    -1.2760    -1.5380 c3         1 4Q5      -0.116100
     43 NBK         -6.4690     0.2530    -0.5580 ns         1 4Q5      -0.571900
     44 CBL         -6.9670    -1.1070    -0.5470 c3         1 4Q5       0.077700
     45 CBM         -7.3410    -1.4900     0.8950 c3         1 4Q5       0.182400
     46 CBU         -8.9970    -3.3840     1.2870 ca         1 4Q5      -0.120000
     47 CBY         -6.7270    -3.9150     0.7410 ca         1 4Q5      -0.120000
     48 CBV         -9.3000    -4.7410     1.3270 ca         1 4Q5      -0.125500
     49 CBX         -7.0260    -5.2680     0.7840 ca         1 4Q5      -0.125500
     50 CBN         -7.7100    -2.9560     0.9840 ca         1 4Q5      -0.115300
     51 CBW         -8.3190    -5.6870     1.0730 ca         1 4Q5      -0.124000
     52 H11         10.8990    -4.1650     0.0250 h1         1 4Q5       0.028033
     53 H12         10.7490    -3.2130     1.5010 h1         1 4Q5       0.028033
     54 H13          9.5290    -4.4180     1.0920 h1         1 4Q5       0.028033
     55 H8           8.0280    -2.6470     1.4020 h1         1 4Q5       0.057700
     56 H4           7.7670    -0.2360     1.5670 hc         1 4Q5       0.055700
     57 H5          10.7030    -1.0160     1.8660 hc         1 4Q5       0.037200
     58 H6           9.8440     0.2500     2.7290 hc         1 4Q5       0.037200
     59 H7           9.4310    -1.4400     3.0140 hc         1 4Q5       0.037200
     60 H1           8.4280     0.4950    -0.7350 hc         1 4Q5       0.037200
     61 H2           9.3420     1.3340     0.5100 hc         1 4Q5       0.037200
     62 H3          10.0990     0.0380    -0.3970 hc         1 4Q5       0.037200
     63 H9          10.0050    -2.0940    -0.6340 hn         1 4Q5       0.380800
     64 H14          5.9160    -2.0130     1.2300 hn         1 4Q5       0.324500
     65 H15          4.9240    -1.4410    -1.4800 h1         1 4Q5       0.092700
     66 H16          3.5920    -3.1440     0.6450 hc         1 4Q5       0.062700
     67 H17          2.5710    -2.2870    -2.1110 hc         1 4Q5       0.038700
     68 H18          1.8110    -3.4890    -1.0730 hc         1 4Q5       0.038700
     69 H19          1.8750    -1.8150    -0.5580 hc         1 4Q5       0.038700
     70 H20          5.3900    -4.3510    -0.5760 hc         1 4Q5       0.038700
     71 H21          3.8080    -4.9520    -1.0530 hc         1 4Q5       0.038700
     72 H22          4.6900    -3.8620    -2.1210 hc         1 4Q5       0.038700
     73 H36          1.2410     0.5240    -0.6410 h1         1 4Q5       0.066700
     74 H27          3.7390     3.2870    -0.9750 hc         1 4Q5       0.058700
     75 H26          2.8220     1.4000     1.2200 h1         1 4Q5       0.086700
     76 H40          0.6400     1.3930     1.6350 hc         1 4Q5       0.071700
     77 H41          0.4040     2.9760     0.9370 hc         1 4Q5       0.071700
     78 H31          5.1980     4.0590     0.9700 hc         1 4Q5       0.037700
     79 H32          4.8020     2.5750     1.7880 hc         1 4Q5       0.037700
     80 H33          6.0880     1.2750     0.1070 hc         1 4Q5       0.031367
     81 H34          6.1440     2.6640    -0.9740 hc         1 4Q5       0.031367
     82 H35          7.0420     2.6760     0.5340 hc         1 4Q5       0.031367
     83 H28          3.2690     5.0730     0.6920 hc         1 4Q5       0.035367
     84 H29          1.8000     4.3240     0.1010 hc         1 4Q5       0.035367
     85 H30          2.4190     3.9160     1.7060 hc         1 4Q5       0.035367
     86 H23          3.2900    -0.0090    -2.4750 h1         1 4Q5       0.047033
     87 H24          3.6650     1.6870    -2.2470 h1         1 4Q5       0.047033
     88 H25          4.9500     0.5110    -2.1400 h1         1 4Q5       0.047033
     89 H37         -0.4330     1.7670    -2.5790 h1         1 4Q5       0.033367
     90 H38          0.9170     2.4450    -3.5010 h1         1 4Q5       0.033367
     91 H39          1.0300     0.8080    -2.8430 h1         1 4Q5       0.033367
     92 H44         -3.5610     3.7130     3.3210 hc         1 4Q5       0.053200
     93 H45         -3.1410     2.0000     3.3350 hc         1 4Q5       0.053200
     94 H54         -6.5590     2.5750    -2.9780 hc         1 4Q5       0.045033
     95 H55         -5.3520     3.8270    -2.7230 hc         1 4Q5       0.045033
     96 H56         -4.8930     2.3010    -3.4860 hc         1 4Q5       0.045033
     97 H53         -5.8510     2.6520    -0.6010 hc         1 4Q5       0.058700
     98 H50         -2.3300     5.2580    -1.7780 h1         1 4Q5       0.031700
     99 H51         -1.4350     3.7730    -1.4350 h1         1 4Q5       0.031700
    100 H52         -2.5200     3.8520    -2.8340 h1         1 4Q5       0.031700
    101 H48         -3.5930     0.8100     0.5060 h1         1 4Q5       0.080700
    102 H46         -5.1000     1.9730     1.8980 hc         1 4Q5       0.057700
    103 H47         -4.6740     3.5310     1.2080 hc         1 4Q5       0.057700
    104 H42         -1.9430     4.1670     1.5560 h1         1 4Q5       0.050700
    105 H43         -1.0930     2.9830     2.5570 h1         1 4Q5       0.050700
    106 H49         -3.1010     1.8710    -1.6440 h1         1 4Q5       0.081700
    107 H59         -8.9470    -0.6020    -1.3210 hc         1 4Q5       0.044700
    108 H60         -7.7730    -1.0490    -2.5470 hc         1 4Q5       0.044700
    109 H61         -8.4960    -2.2980    -1.5360 hc         1 4Q5       0.044700
    110 H57         -6.9980     0.9420    -0.0450 hn         1 4Q5       0.318500
    111 H58         -6.1450    -1.7540    -0.8550 h1         1 4Q5       0.091700
    112 H62         -6.4490    -1.3280     1.5100 h1         1 4Q5       0.089700
    113 H64         -9.7820    -2.6700     1.5020 ha         1 4Q5       0.132500
    114 H68         -5.7120    -3.6030     0.5210 ha         1 4Q5       0.132500
    115 H65        -10.3090    -5.0550     1.5630 ha         1 4Q5       0.132500
    116 H67         -6.2480    -5.9970     0.5940 ha         1 4Q5       0.132500
    117 H66         -8.5560    -6.7420     1.1070 ha         1 4Q5       0.132000
    118 H63         -9.1170    -0.6760     0.8900 ho         1 4Q5       0.405000
@<TRIPOS>BOND
     1     1     2 1   
     2     1     3 1   
     3     1    63 1   
     4     2    52 1   
     5     2    53 1   
     6     2    54 1   
     7     3     4 1   
     8     3     7 1   
     9     3    55 1   
    10     4     5 1   
    11     4     6 1   
    12     4    56 1   
    13     5    57 1   
    14     5    58 1   
    15     5    59 1   
    16     6    60 1   
    17     6    61 1   
    18     6    62 1   
    19     7     8 2   
    20     7     9 1   
    21     9    10 1   
    22     9    64 1   
    23    10    11 1   
    24    10    13 1   
    25    10    65 1   
    26    11    12 2   
    27    11    16 1   
    28    13    14 1   
    29    13    15 1   
    30    13    66 1   
    31    14    67 1   
    32    14    68 1   
    33    14    69 1   
    34    15    70 1   
    35    15    71 1   
    36    15    72 1   
    37    16    19 1   
    38    16    27 1   
    39    17    19 1   
    40    17    20 1   
    41    17    22 1   
    42    17    73 1   
    43    18    19 1   
    44    18    24 1   
    45    18    26 1   
    46    18    74 1   
    47    19    75 1   
    48    20    21 1   
    49    20    76 1   
    50    20    77 1   
    51    21    23 2   
    52    21    34 1   
    53    22    28 1   
    54    24    25 1   
    55    24    78 1   
    56    24    79 1   
    57    25    80 1   
    58    25    81 1   
    59    25    82 1   
    60    26    83 1   
    61    26    84 1   
    62    26    85 1   
    63    27    86 1   
    64    27    87 1   
    65    27    88 1   
    66    28    89 1   
    67    28    90 1   
    68    28    91 1   
    69    29    36 1   
    70    29    37 1   
    71    29    92 1   
    72    29    93 1   
    73    30    31 1   
    74    30    94 1   
    75    30    95 1   
    76    30    96 1   
    77    31    33 1   
    78    31    38 1   
    79    31    97 1   
    80    32    39 1   
    81    32    98 1   
    82    32    99 1   
    83    32   100 1   
    84    33    40 2   
    85    33    43 1   
    86    34    35 1   
    87    34    37 1   
    88    35    36 1   
    89    35    38 1   
    90    35   101 1   
    91    36   102 1   
    92    36   103 1   
    93    37   104 1   
    94    37   105 1   
    95    38    39 1   
    96    38   106 1   
    97    41    45 1   
    98    41   118 1   
    99    42    44 1   
   100    42   107 1   
   101    42   108 1   
   102    42   109 1   
   103    43    44 1   
   104    43   110 1   
   105    44    45 1   
   106    44   111 1   
   107    45    50 1   
   108    45   112 1   
   109    46    48 ar  
   110    46    50 ar  
   111    46   113 1   
   112    47    49 ar  
   113    47    50 ar  
   114    47   114 1   
   115    48    51 ar  
   116    48   115 1   
   117    49    51 ar  
   118    49   116 1   
   119    51   117 1   
@<TRIPOS>SUBSTRUCTURE
     1 4Q5         1 TEMP              0 ****  ****    0 ROOT
