@<TRIPOS>MOLECULE
4Q6
   41    44     1     0     0
SMALL
abcg2


@<TRIPOS>ATOM
      1 C3         -20.1320   -18.9250     4.6110 ca         1 4Q6      -0.051000
      2 C4         -19.3980   -17.7810     4.8820 ca         1 4Q6      -0.146000
      3 O2         -21.6400   -21.2060     4.0330 o          1 4Q6      -0.710000
      4 C7         -22.0100   -18.1070     5.8650 ca         1 4Q6      -0.025000
      5 O1         -23.3640   -20.4540     5.2360 o          1 4Q6      -0.710000
      6 C2         -21.4330   -19.1050     5.0880 ca         1 4Q6      -0.141600
      7 C5         -19.9920   -16.7890     5.6510 ca         1 4Q6      -0.036200
      8 C6         -21.2840   -16.9610     6.1380 ca         1 4Q6      -0.234000
      9 S1         -21.7880   -15.5770     7.0780 ss         1 4Q6       0.096800
     10 C8         -20.2480   -14.7970     6.7880 cc         1 4Q6       0.581700
     11 N1         -19.8510   -13.6410     7.2260 nf         1 4Q6      -0.802100
     12 C9         -20.6920   -12.9200     8.0080 c          1 4Q6       0.737100
     13 O3         -21.8240   -13.2580     8.3450 o          1 4Q6      -0.628100
     14 C10        -20.1260   -11.6490     8.4530 cc         1 4Q6      -0.187600
     15 C11        -18.8980   -11.0740     8.2060 cd         1 4Q6      -0.084000
     16 C12        -18.8850    -9.8460     8.8870 cd         1 4Q6      -0.088900
     17 BR1        -17.4960    -8.6130     8.9330 br         1 4Q6      -0.066100
     18 C13        -20.1010    -9.7110     9.5260 cc         1 4Q6      -0.100900
     19 BR2        -20.7050    -8.3280    10.5890 br         1 4Q6      -0.033100
     20 N2         -20.8380   -10.8060     9.2550 na         1 4Q6      -0.052000
     21 N3         -19.4510   -15.5690     6.0190 na         1 4Q6      -0.174600
     22 C14        -18.1130   -15.1540     5.6210 c3         1 4Q6       0.123900
     23 C15        -17.0320   -15.8080     6.4430 ca         1 4Q6      -0.100300
     24 C16        -15.9960   -16.4920     5.8180 ca         1 4Q6      -0.090000
     25 C17        -14.9760   -17.0690     6.5660 ca         1 4Q6      -0.114500
     26 C18        -14.9890   -16.9700     7.9490 ca         1 4Q6      -0.108000
     27 C19        -16.0240   -16.2900     8.5810 ca         1 4Q6      -0.114500
     28 C20        -17.0380   -15.7100     7.8330 ca         1 4Q6      -0.090000
     29 H1         -19.6820   -19.7040     4.0110 ha         1 4Q6       0.138000
     30 H2         -18.3920   -17.6760     4.4990 ha         1 4Q6       0.105000
     31 H3         -23.0160   -18.2290     6.2450 ha         1 4Q6       0.147000
     32 H6         -18.1060   -11.4920     7.6070 ha         1 4Q6       0.160000
     33 H7         -21.7740   -10.9890     9.5890 hn         1 4Q6       0.376000
     34 H8         -17.9880   -15.3840     4.5620 h1         1 4Q6       0.074200
     35 H9         -18.0700   -14.0710     5.7220 h1         1 4Q6       0.074200
     36 H10        -15.9830   -16.5760     4.7370 ha         1 4Q6       0.119500
     37 H11        -14.1750   -17.5980     6.0650 ha         1 4Q6       0.108500
     38 H12        -14.1980   -17.4200     8.5350 ha         1 4Q6       0.106000
     39 H13        -16.0390   -16.2050     9.6600 ha         1 4Q6       0.108500
     40 H14        -17.8300   -15.1700     8.3380 ha         1 4Q6       0.119500
     41 C1         -22.2180   -20.3730     4.7560 c          1 4Q6       0.715600
@<TRIPOS>BOND
     1     1     2 ar  
     2     1     6 ar  
     3     1    29 1   
     4     2     7 ar  
     5     2    30 1   
     6     3    41 1   
     7     4     6 ar  
     8     4     8 ar  
     9     4    31 1   
    10     5    41 1   
    11     6    41 1   
    12     7     8 ar  
    13     7    21 1   
    14     8     9 1   
    15     9    10 1   
    16    10    11 2   
    17    10    21 1   
    18    11    12 1   
    19    12    13 2   
    20    12    14 1   
    21    14    15 2   
    22    14    20 1   
    23    15    16 1   
    24    15    32 1   
    25    16    17 1   
    26    16    18 2   
    27    18    19 1   
    28    18    20 1   
    29    20    33 1   
    30    21    22 1   
    31    22    23 1   
    32    22    34 1   
    33    22    35 1   
    34    23    24 ar  
    35    23    28 ar  
    36    24    25 ar  
    37    24    36 1   
    38    25    26 ar  
    39    25    37 1   
    40    26    27 ar  
    41    26    38 1   
    42    27    28 ar  
    43    27    39 1   
    44    28    40 1   
@<TRIPOS>SUBSTRUCTURE
     1 4Q6         1 TEMP              0 ****  ****    0 ROOT
