@<TRIPOS>MOLECULE
4Q6
   41    44     1     0     0
SMALL
No Charge or Current Charge


@<TRIPOS>ATOM
      1 C3         -20.0730   -19.1580     4.8940 ca         1 4Q6      -0.051000
      2 C4         -19.5100   -17.8960     5.1680 ca         1 4Q6      -0.146000
      3 O2         -21.3290   -21.6400     4.3640 o          1 4Q6      -0.710000
      4 C7         -22.3050   -18.2650     5.3000 ca         1 4Q6      -0.025000
      5 O1         -23.2940   -20.8480     4.7240 o          1 4Q6      -0.710000
      6 C2         -21.4760   -19.3590     4.9530 ca         1 4Q6      -0.141600
      7 C5         -20.3560   -16.8210     5.4950 ca         1 4Q6      -0.036200
      8 C6         -21.7220   -17.0160     5.5680 ca         1 4Q6      -0.234000
      9 S1         -22.6200   -15.5610     6.0500 ss         1 4Q6       0.096800
     10 C8         -21.0550   -14.7180     6.1810 cc         1 4Q6       0.581700
     11 N1         -20.9880   -13.4840     6.5810 nf         1 4Q6      -0.802100
     12 C9         -20.5100   -13.3480     7.8920 c          1 4Q6       0.737100
     13 O3         -21.0380   -13.9330     8.8240 o          1 4Q6      -0.628100
     14 C10        -19.3310   -12.4650     8.0280 cc         1 4Q6      -0.187600
     15 C11        -18.7360   -11.7440     7.0170 cd         1 4Q6      -0.084000
     16 C12        -17.6130   -11.0640     7.5320 cd         1 4Q6      -0.088900
     17 Br1        -16.4520    -9.9740     6.5240 br         1 4Q6      -0.066100
     18 C13        -17.5100   -11.3510     8.8640 cc         1 4Q6      -0.100900
     19 Br2        -16.1990   -10.7700    10.0890 br         1 4Q6      -0.033100
     20 N2         -18.5710   -12.2000     9.1740 na         1 4Q6      -0.052000
     21 N3         -19.9720   -15.5190     5.8000 na         1 4Q6      -0.174600
     22 C14        -18.5700   -15.0660     5.6570 c3         1 4Q6       0.123900
     23 C15        -17.7230   -15.1260     6.9320 ca         1 4Q6      -0.100300
     24 C16        -16.5500   -14.3480     7.0040 ca         1 4Q6      -0.090000
     25 C17        -15.7620   -14.3480     8.1670 ca         1 4Q6      -0.114500
     26 C18        -16.1370   -15.1320     9.2700 ca         1 4Q6      -0.108000
     27 C19        -17.2980   -15.9200     9.2050 ca         1 4Q6      -0.114500
     28 C20        -18.0880   -15.9200     8.0420 ca         1 4Q6      -0.090000
     29 H1         -19.4120   -19.9840     4.6390 ha         1 4Q6       0.138000
     30 H2         -18.4310   -17.7780     5.1280 ha         1 4Q6       0.105000
     31 H3         -23.3850   -18.3830     5.3670 ha         1 4Q6       0.147000
     32 H6         -19.0660   -11.7110     5.9830 ha         1 4Q6       0.160000
     33 H7         -18.7530   -12.5920    10.0930 hn         1 4Q6       0.376000
     34 H8         -18.0760   -15.6450     4.8690 h1         1 4Q6       0.074200
     35 H9         -18.5880   -14.0300     5.3000 h1         1 4Q6       0.074200
     36 H10        -16.2540   -13.7280     6.1600 ha         1 4Q6       0.119500
     37 H11        -14.8650   -13.7350     8.2160 ha         1 4Q6       0.108500
     38 H12        -15.5290   -15.1300    10.1720 ha         1 4Q6       0.106000
     39 H13        -17.5870   -16.5300    10.0570 ha         1 4Q6       0.108500
     40 H14        -18.9820   -16.5380     8.0170 ha         1 4Q6       0.119500
     41 C1         -22.0790   -20.7190     4.6580 c          1 4Q6       0.715600
@<TRIPOS>BOND
     1     1     2 ar  
     2     1     6 ar  
     3     1    29 1   
     4     2     7 ar  
     5     2    30 1   
     6     3    41 1   
     7     4     6 ar  
     8     4     8 ar  
     9     4    31 1   
    10     5    41 1   
    11     6    41 1   
    12     7     8 ar  
    13     7    21 1   
    14     8     9 1   
    15     9    10 1   
    16    10    11 2   
    17    10    21 1   
    18    11    12 1   
    19    12    13 2   
    20    12    14 1   
    21    14    15 2   
    22    14    20 1   
    23    15    16 1   
    24    15    32 1   
    25    16    17 1   
    26    16    18 2   
    27    18    19 1   
    28    18    20 1   
    29    20    33 1   
    30    21    22 1   
    31    22    23 1   
    32    22    34 1   
    33    22    35 1   
    34    23    24 ar  
    35    23    28 ar  
    36    24    25 ar  
    37    24    36 1   
    38    25    26 ar  
    39    25    37 1   
    40    26    27 ar  
    41    26    38 1   
    42    27    28 ar  
    43    27    39 1   
    44    28    40 1   
@<TRIPOS>SUBSTRUCTURE
     1 4Q6         1 TEMP              0 ****  ****    0 ROOT
