@<TRIPOS>MOLECULE
4Q7
   55    59     1     0     0
SMALL
abcg2


@<TRIPOS>ATOM
      1 C10         -4.6730    20.1380     6.5940 ca         1 4Q7      -0.077800
      2 C11         -3.5050    19.8270     7.3010 ca         1 4Q7      -0.053500
      3 C12         -3.2660    18.5440     7.7710 ca         1 4Q7      -0.174500
      4 C13         -4.1940    17.5330     7.5280 ca         1 4Q7       0.142100
      5 C14         -5.3530    17.8150     6.8050 ca         1 4Q7      -0.174500
      6 C15         -5.5830    19.1010     6.3470 ca         1 4Q7      -0.053500
      7 C16         -5.5900    23.4300     5.0950 c5         1 4Q7       0.178500
      8 C17         -5.3210    22.9460     3.6420 c5         1 4Q7      -0.067400
      9 C01        -10.0840    21.5950     7.1000 ca         1 4Q7       0.140100
     10 C02         -9.7910    22.3240     5.9510 ca         1 4Q7      -0.172000
     11 C03         -8.4700    22.5250     5.5800 ca         1 4Q7      -0.058500
     12 C04         -7.4090    21.9940     6.3280 ca         1 4Q7      -0.073800
     13 C05         -7.7290    21.2760     7.4890 ca         1 4Q7      -0.058500
     14 C06         -9.0440    21.0760     7.8740 ca         1 4Q7      -0.172000
     15 C07         -6.0270    22.2240     5.9250 ce         1 4Q7      -0.069400
     16 C08         -4.9040    21.4930     6.0960 cf         1 4Q7      -0.070400
     17 C09         -3.8080    22.2970     5.4020 c5         1 4Q7       0.218500
     18 O02         -4.0160    16.2540     7.9630 oh         1 4Q7      -0.536100
     19 C18         -4.0770    22.0550     3.8780 c5         1 4Q7      -0.344700
     20 O03         -4.2460    23.6470     5.5640 os         1 4Q7      -0.417000
     21 S01         -2.7070    22.5270     2.8420 s6         1 4Q7       1.340700
     22 O04         -1.7130    21.3170     3.2620 os         1 4Q7      -0.452800
     23 O05         -2.1190    23.7790     3.2410 o          1 4Q7      -0.536000
     24 O06         -3.0580    22.3550     1.4560 o          1 4Q7      -0.536000
     25 C19         -0.3280    21.5240     3.2450 ca         1 4Q7       0.090100
     26 C20          0.3180    21.7470     4.4680 ca         1 4Q7       0.150100
     27 C21          1.7060    21.8910     4.4630 ca         1 4Q7      -0.183000
     28 C22          2.4110    21.8150     3.2640 ca         1 4Q7      -0.067000
     29 C23          1.7550    21.5920     2.0610 ca         1 4Q7      -0.128000
     30 C24          0.3710    21.4440     2.0560 ca         1 4Q7      -0.085000
     31 O07         -0.4650    21.7970     5.5690 os         1 4Q7      -0.345100
     32 C25          0.1590    22.0240     6.8360 c3         1 4Q7       0.147900
     33 H1          -2.7760    20.6020     7.5010 ha         1 4Q7       0.119000
     34 H2          -2.3610    18.3220     8.3270 ha         1 4Q7       0.123000
     35 H3          -6.0600    17.0200     6.6040 ha         1 4Q7       0.123000
     36 H4          -6.4810    19.3070     5.7800 ha         1 4Q7       0.119000
     37 H5          -6.1830    24.3340     5.1830 h1         1 4Q7       0.104700
     38 H6          -5.1020    23.7990     3.0010 hc         1 4Q7       0.069200
     39 H7          -6.1480    22.3870     3.2130 hc         1 4Q7       0.069200
     40 H8         -10.6000    22.7310     5.3580 ha         1 4Q7       0.123500
     41 H9          -8.2650    23.0960     4.6830 ha         1 4Q7       0.119000
     42 H10         -6.9360    20.8770     8.1060 ha         1 4Q7       0.119000
     43 H11         -9.2710    20.5250     8.7790 ha         1 4Q7       0.123500
     44 H12        -11.4690    20.9100     8.2470 ho         1 4Q7       0.464000
     45 H13         -2.7840    22.1570     5.7260 h1         1 4Q7       0.123700
     46 H14         -3.1840    16.1810     8.4500 ho         1 4Q7       0.464000
     47 H15         -4.2370    21.0040     3.6450 h1         1 4Q7       0.120700
     48 H16          2.2370    22.0620     5.3870 ha         1 4Q7       0.122000
     49 H17          3.4880    21.9290     3.2820 ha         1 4Q7       0.118000
     50 H18          2.3090    21.5290     1.1340 ha         1 4Q7       0.125000
     51 H19         -0.1730    21.2600     1.1390 ha         1 4Q7       0.139000
     52 H20         -0.6490    22.0290     7.5620 h1         1 4Q7       0.047033
     53 H21          0.8630    21.2240     7.0710 h1         1 4Q7       0.047033
     54 H22          0.6740    22.9870     6.8480 h1         1 4Q7       0.047033
     55 O01        -11.3970    21.4240     7.4300 oh         1 4Q7      -0.536100
@<TRIPOS>BOND
     1     1     2 ar  
     2     1     6 ar  
     3     1    16 1   
     4     2     3 ar  
     5     2    33 1   
     6     3     4 ar  
     7     3    34 1   
     8     4     5 ar  
     9     4    18 1   
    10     5     6 ar  
    11     5    35 1   
    12     6    36 1   
    13     7     8 1   
    14     7    15 1   
    15     7    20 1   
    16     7    37 1   
    17     8    19 1   
    18     8    38 1   
    19     8    39 1   
    20     9    10 ar  
    21     9    14 ar  
    22     9    55 1   
    23    10    11 ar  
    24    10    40 1   
    25    11    12 ar  
    26    11    41 1   
    27    12    13 ar  
    28    12    15 1   
    29    13    14 ar  
    30    13    42 1   
    31    14    43 1   
    32    15    16 2   
    33    16    17 1   
    34    17    19 1   
    35    17    20 1   
    36    17    45 1   
    37    18    46 1   
    38    19    21 1   
    39    19    47 1   
    40    21    22 1   
    41    21    23 2   
    42    21    24 2   
    43    22    25 1   
    44    25    26 ar  
    45    25    30 ar  
    46    26    27 ar  
    47    26    31 1   
    48    27    28 ar  
    49    27    48 1   
    50    28    29 ar  
    51    28    49 1   
    52    29    30 ar  
    53    29    50 1   
    54    30    51 1   
    55    31    32 1   
    56    32    52 1   
    57    32    53 1   
    58    32    54 1   
    59    44    55 1   
@<TRIPOS>SUBSTRUCTURE
     1 4Q7         1 TEMP              0 ****  ****    0 ROOT
