@<TRIPOS>MOLECULE
4Q7
   55    59     1     0     0
SMALL
No Charge or Current Charge


@<TRIPOS>ATOM
      1 C10         -4.7940    19.9560     6.5410 ca         1 4Q7      -0.077800
      2 C11         -3.5690    19.5610     7.1190 ca         1 4Q7      -0.053500
      3 C12         -3.4270    18.2830     7.6890 ca         1 4Q7      -0.174500
      4 C13         -4.5070    17.3870     7.6790 ca         1 4Q7       0.142100
      5 C14         -5.7240    17.7650     7.0980 ca         1 4Q7      -0.174500
      6 C15         -5.8680    19.0420     6.5290 ca         1 4Q7      -0.053500
      7 C16         -5.5190    23.3090     4.9300 c5         1 4Q7       0.178500
      8 C17         -5.3560    22.7450     3.4780 c5         1 4Q7      -0.067400
      9 C01        -10.0580    21.8070     7.2460 ca         1 4Q7       0.140100
     10 C02         -9.8210    22.3080     5.9580 ca         1 4Q7      -0.172000
     11 C03         -8.5060    22.4090     5.4700 ca         1 4Q7      -0.058500
     12 C04         -7.4190    22.0010     6.2690 ca         1 4Q7      -0.073800
     13 C05         -7.6640    21.5090     7.5660 ca         1 4Q7      -0.058500
     14 C06         -8.9800    21.4080     8.0520 ca         1 4Q7      -0.172000
     15 C07         -6.0240    22.1160     5.7590 ce         1 4Q7      -0.069400
     16 C08         -4.9430    21.2940     5.9310 cf         1 4Q7      -0.070400
     17 C09         -3.8010    22.0210     5.1870 c5         1 4Q7       0.218500
     18 O02         -4.3770    16.1470     8.2290 oh         1 4Q7      -0.536100
     19 C18         -4.1120    21.7880     3.6830 c5         1 4Q7      -0.344700
     20 O03         -4.1600    23.3890     5.3540 os         1 4Q7      -0.417000
     21 S01         -2.6330    22.3490     2.6890 s6         1 4Q7       1.340700
     22 O04         -1.5040    21.2540     3.1810 os         1 4Q7      -0.452800
     23 O05         -2.1950    23.6880     3.1060 o          1 4Q7      -0.536000
     24 O06         -2.8990    22.0970     1.2660 o          1 4Q7      -0.536000
     25 C19         -0.1850    21.6440     3.2320 ca         1 4Q7       0.090100
     26 C20          0.4600    21.8150     4.4810 ca         1 4Q7       0.150100
     27 C21          1.8180    22.2080     4.5100 ca         1 4Q7      -0.183000
     28 C22          2.5190    22.4180     3.3090 ca         1 4Q7      -0.067000
     29 C23          1.8760    22.2350     2.0740 ca         1 4Q7      -0.128000
     30 C24          0.5270    21.8450     2.0340 ca         1 4Q7      -0.085000
     31 O07         -0.2630    21.5900     5.6410 os         1 4Q7      -0.345100
     32 C25          0.3110    21.7460     6.9500 c3         1 4Q7       0.147900
     33 H1          -2.7240    20.2450     7.1450 ha         1 4Q7       0.119000
     34 H2          -2.4780    17.9990     8.1360 ha         1 4Q7       0.123000
     35 H3          -6.5580    17.0680     7.0830 ha         1 4Q7       0.123000
     36 H4          -6.8120    19.3130     6.0630 ha         1 4Q7       0.119000
     37 H5          -6.0670    24.2550     5.0400 h1         1 4Q7       0.104700
     38 H6          -5.1690    23.5510     2.7570 hc         1 4Q7       0.069200
     39 H7          -6.2490    22.2070     3.1380 hc         1 4Q7       0.069200
     40 H8         -10.6550    22.6200     5.3350 ha         1 4Q7       0.123500
     41 H9          -8.3360    22.7980     4.4690 ha         1 4Q7       0.119000
     42 H10         -6.8330    21.2080     8.2000 ha         1 4Q7       0.119000
     43 H11         -9.1520    21.0240     9.0550 ha         1 4Q7       0.123500
     44 H12        -11.3100    21.3480     8.6190 ho         1 4Q7       0.464000
     45 H13         -2.7810    21.8020     5.5310 h1         1 4Q7       0.123700
     46 H14         -3.4670    16.0570     8.5820 ho         1 4Q7       0.464000
     47 H15         -4.2940    20.7390     3.4260 h1         1 4Q7       0.120700
     48 H16          2.3450    22.3520     5.4480 ha         1 4Q7       0.122000
     49 H17          3.5650    22.7200     3.3360 ha         1 4Q7       0.118000
     50 H18          2.4250    22.3920     1.1470 ha         1 4Q7       0.125000
     51 H19          0.0370    21.6940     1.0750 ha         1 4Q7       0.139000
     52 H20         -0.4350    21.5210     7.7220 h1         1 4Q7       0.047033
     53 H21          1.1590    21.0630     7.0890 h1         1 4Q7       0.047033
     54 H22          0.6580    22.7760     7.1040 h1         1 4Q7       0.047033
     55 O01        -11.3360    21.7140     7.7090 oh         1 4Q7      -0.536100
@<TRIPOS>BOND
     1     1     2 ar  
     2     1     6 ar  
     3     1    16 1   
     4     2     3 ar  
     5     2    33 1   
     6     3     4 ar  
     7     3    34 1   
     8     4     5 ar  
     9     4    18 1   
    10     5     6 ar  
    11     5    35 1   
    12     6    36 1   
    13     7     8 1   
    14     7    15 1   
    15     7    20 1   
    16     7    37 1   
    17     8    19 1   
    18     8    38 1   
    19     8    39 1   
    20     9    10 ar  
    21     9    14 ar  
    22     9    55 1   
    23    10    11 ar  
    24    10    40 1   
    25    11    12 ar  
    26    11    41 1   
    27    12    13 ar  
    28    12    15 1   
    29    13    14 ar  
    30    13    42 1   
    31    14    43 1   
    32    15    16 2   
    33    16    17 1   
    34    17    19 1   
    35    17    20 1   
    36    17    45 1   
    37    18    46 1   
    38    19    21 1   
    39    19    47 1   
    40    21    22 1   
    41    21    23 2   
    42    21    24 2   
    43    22    25 1   
    44    25    26 ar  
    45    25    30 ar  
    46    26    27 ar  
    47    26    31 1   
    48    27    28 ar  
    49    27    48 1   
    50    28    29 ar  
    51    28    49 1   
    52    29    30 ar  
    53    29    50 1   
    54    30    51 1   
    55    31    32 1   
    56    32    52 1   
    57    32    53 1   
    58    32    54 1   
    59    44    55 1   
@<TRIPOS>SUBSTRUCTURE
     1 4Q7         1 TEMP              0 ****  ****    0 ROOT
