@<TRIPOS>MOLECULE
4Q8
   25    26     1     0     0
SMALL
No Charge or Current Charge


@<TRIPOS>ATOM
      1 C02        -30.9520   -26.3520     9.4590 cc         1 4Q8      -0.190300
      2 C07        -31.7430   -26.1100    11.8740 c3         1 4Q8       0.120900
      3 C09        -30.4340   -24.2820    13.0630 ca         1 4Q8      -0.095000
      4 C10        -30.2260   -22.9360    13.4110 ca         1 4Q8      -0.109500
      5 C11        -31.1080   -21.9450    12.9500 ca         1 4Q8      -0.101000
      6 C12        -32.1990   -22.3010    12.1410 ca         1 4Q8      -0.109500
      7 C13        -32.4090   -23.6460    11.7920 ca         1 4Q8      -0.095000
      8 C01        -29.4800   -26.1410     9.7010 c3         1 4Q8      -0.017800
      9 C03        -31.6120   -26.5900     8.2790 cd         1 4Q8       0.226900
     10 N04        -32.9700   -26.7150     8.4940 nd         1 4Q8      -0.668000
     11 C05        -33.1400   -26.5520     9.7990 cc         1 4Q8       0.385400
     12 N06        -31.9330   -26.3300    10.4300 na         1 4Q8      -0.169500
     13 C08        -31.5250   -24.6460    12.2480 ca         1 4Q8      -0.115300
     14 H071       -32.6270   -26.4850    12.4060 h1         1 4Q8       0.064200
     15 H072       -30.8870   -26.7120    12.2050 h1         1 4Q8       0.064200
     16 H101       -29.3810   -22.6620    14.0390 ha         1 4Q8       0.116000
     17 H111       -30.9460   -20.9030    13.2200 ha         1 4Q8       0.115000
     18 H121       -32.8840   -21.5340    11.7840 ha         1 4Q8       0.116000
     19 H131       -33.2590   -23.9080    11.1660 ha         1 4Q8       0.116500
     20 H013       -29.2950   -25.1590    10.1540 hc         1 4Q8       0.046700
     21 H012       -29.0790   -26.9070    10.3740 hc         1 4Q8       0.046700
     22 H011       -28.9160   -26.1890     8.7620 hc         1 4Q8       0.046700
     23 H031       -31.1850   -26.6760     7.2860 h4         1 4Q8       0.036100
     24 H051       -34.0810   -26.5830    10.3360 h5         1 4Q8       0.051100
     25 H091       -29.7440   -25.0410    13.4260 ha         1 4Q8       0.116500
@<TRIPOS>BOND
     1     1     8 1   
     2     1     9 2   
     3     1    12 1   
     4     2    12 1   
     5     2    13 1   
     6     2    14 1   
     7     2    15 1   
     8     3     4 ar  
     9     3    13 ar  
    10     3    25 1   
    11     4     5 ar  
    12     4    16 1   
    13     5     6 ar  
    14     5    17 1   
    15     6     7 ar  
    16     6    18 1   
    17     7    13 ar  
    18     7    19 1   
    19     8    20 1   
    20     8    21 1   
    21     8    22 1   
    22     9    10 1   
    23     9    23 1   
    24    10    11 2   
    25    11    12 1   
    26    11    24 1   
@<TRIPOS>SUBSTRUCTURE
     1 4Q8         1 TEMP              0 ****  ****    0 ROOT
