@<TRIPOS>MOLECULE
4Q8
   25    26     1     0     0
SMALL
abcg2


@<TRIPOS>ATOM
      1 C02        -31.0040   -26.2640     9.4820 cc         1 4Q8      -0.190300
      2 C07        -31.7440   -26.1340    11.8830 c3         1 4Q8       0.120900
      3 C09        -30.4860   -24.3430    13.1140 ca         1 4Q8      -0.095000
      4 C10        -30.2620   -23.0140    13.4540 ca         1 4Q8      -0.109500
      5 C11        -31.0390   -22.0120    12.8900 ca         1 4Q8      -0.101000
      6 C12        -32.0410   -22.3460    11.9880 ca         1 4Q8      -0.109500
      7 C13        -32.2660   -23.6740    11.6540 ca         1 4Q8      -0.095000
      8 C01        -29.5780   -25.9400     9.7360 c3         1 4Q8      -0.017800
      9 C03        -31.6810   -26.5360     8.3250 cd         1 4Q8       0.226900
     10 N04        -33.0000   -26.7910     8.5810 nd         1 4Q8      -0.668000
     11 C05        -33.1240   -26.6770     9.8760 cc         1 4Q8       0.385400
     12 N06        -31.9500   -26.3630    10.4710 na         1 4Q8      -0.169500
     13 C08        -31.4890   -24.6840    12.2150 ca         1 4Q8      -0.115300
     14 H071       -32.6360   -26.4880    12.4020 h1         1 4Q8       0.064200
     15 H072       -30.9130   -26.7500    12.2300 h1         1 4Q8       0.064200
     16 H101       -29.4750   -22.7640    14.1540 ha         1 4Q8       0.116000
     17 H111       -30.8640   -20.9760    13.1500 ha         1 4Q8       0.115000
     18 H121       -32.6510   -21.5710    11.5430 ha         1 4Q8       0.116000
     19 H131       -33.0520   -23.9200    10.9490 ha         1 4Q8       0.116500
     20 H013       -29.4470   -24.9330    10.1390 hc         1 4Q8       0.046700
     21 H012       -29.1180   -26.6350    10.4410 hc         1 4Q8       0.046700
     22 H011       -29.0190   -25.9990     8.8040 hc         1 4Q8       0.046700
     23 H031       -31.2760   -26.5620     7.3240 h4         1 4Q8       0.036100
     24 H051       -34.0320   -26.8100    10.4460 h5         1 4Q8       0.051100
     25 H091       -29.8680   -25.1190    13.5510 ha         1 4Q8       0.116500
@<TRIPOS>BOND
     1     1     8 1   
     2     1     9 2   
     3     1    12 1   
     4     2    12 1   
     5     2    13 1   
     6     2    14 1   
     7     2    15 1   
     8     3     4 ar  
     9     3    13 ar  
    10     3    25 1   
    11     4     5 ar  
    12     4    16 1   
    13     5     6 ar  
    14     5    17 1   
    15     6     7 ar  
    16     6    18 1   
    17     7    13 ar  
    18     7    19 1   
    19     8    20 1   
    20     8    21 1   
    21     8    22 1   
    22     9    10 1   
    23     9    23 1   
    24    10    11 2   
    25    11    12 1   
    26    11    24 1   
@<TRIPOS>SUBSTRUCTURE
     1 4Q8         1 TEMP              0 ****  ****    0 ROOT
