@<TRIPOS>MOLECULE
4Q9
   54    58     1     0     0
SMALL
abcg2


@<TRIPOS>ATOM
      1 O01         -8.0420     6.4600    24.6090 o          1 4Q9      -0.531500
      2 S02         -7.3580     5.2210    24.8690 s6         1 4Q9       1.344700
      3 C03         -6.0080     4.9450    23.7230 c5         1 4Q9      -0.342700
      4 C04         -6.3960     5.1590    22.2350 c5         1 4Q9       0.215500
      5 C05         -5.2970     4.4330    21.4620 ce         1 4Q9      -0.073400
      6 C06         -5.5370     3.1990    20.7100 ca         1 4Q9      -0.076800
      7 C07         -4.6910     2.0900    20.8500 ca         1 4Q9      -0.057500
      8 C08         -4.9540     0.8960    20.1990 ca         1 4Q9      -0.172000
      9 C09         -6.1010     0.7750    19.4130 ca         1 4Q9       0.142100
     10 O10         -6.3270    -0.4270    18.8090 oh         1 4Q9      -0.534100
     11 C11         -6.9790     1.8500    19.2970 ca         1 4Q9      -0.172000
     12 C12         -6.7030     3.0410    19.9550 ca         1 4Q9      -0.057500
     13 C13         -4.2160     5.2220    21.5840 cf         1 4Q9      -0.063400
     14 C14         -2.8710     5.0740    21.0340 ca         1 4Q9      -0.078800
     15 C15         -2.6670     4.6210    19.7250 ca         1 4Q9      -0.055000
     16 C16         -1.3920     4.4670    19.2060 ca         1 4Q9      -0.171500
     17 C17         -0.2800     4.7610    19.9950 ca         1 4Q9       0.141100
     18 O18          0.9540     4.5620    19.4510 oh         1 4Q9      -0.535100
     19 C19         -0.4610     5.2110    21.3020 ca         1 4Q9      -0.171500
     20 C20         -1.7430     5.3700    21.8100 ca         1 4Q9      -0.055000
     21 C21         -4.6800     6.4140    22.4310 c5         1 4Q9       0.182500
     22 O22         -6.0560     6.5430    22.0280 os         1 4Q9      -0.420000
     23 C23         -4.8850     5.9880    23.9070 c5         1 4Q9      -0.064400
     24 O24         -8.3280     3.9890    24.4820 os         1 4Q9      -0.482800
     25 C25         -9.6460     4.1750    24.0070 ca         1 4Q9       0.141100
     26 C26         -9.8870     3.8650    22.6780 ca         1 4Q9      -0.113000
     27 C27        -11.1780     3.9830    22.1790 ca         1 4Q9      -0.100000
     28 C28        -12.2050     4.3990    23.0200 ca         1 4Q9      -0.103000
     29 C29        -11.9390     4.6700    24.3570 ca         1 4Q9      -0.094000
     30 C30        -10.6530     4.5520    24.8920 ca         1 4Q9      -0.070300
     31 C31        -10.3890     4.8440    26.3400 c3         1 4Q9      -0.065800
     32 O32         -6.8850     4.9430    26.1980 o          1 4Q9      -0.531500
     33 H1          -5.7220     3.9260    23.9790 h1         1 4Q9       0.117700
     34 H2          -7.4200     4.9650    21.9490 h1         1 4Q9       0.105700
     35 H3          -3.8000     2.1780    21.4580 ha         1 4Q9       0.119500
     36 H4          -4.2730     0.0590    20.2810 ha         1 4Q9       0.124500
     37 H5          -7.1440    -0.3870    18.2930 ho         1 4Q9       0.464000
     38 H6          -7.8800     1.7500    18.7030 ha         1 4Q9       0.124500
     39 H7          -7.3770     3.8770    19.8170 ha         1 4Q9       0.119500
     40 H8          -3.5230     4.4310    19.0900 ha         1 4Q9       0.119500
     41 H9          -1.2440     4.1170    18.1920 ha         1 4Q9       0.124000
     42 H10          1.6390     4.8930    20.0480 ho         1 4Q9       0.464000
     43 H11          0.4020     5.4630    21.9090 ha         1 4Q9       0.124000
     44 H12         -1.8670     5.7350    22.8220 ha         1 4Q9       0.119500
     45 H13         -4.1060     7.3240    22.2890 h1         1 4Q9       0.105700
     46 H16         -5.2620     6.8520    24.4550 hc         1 4Q9       0.069200
     47 H17         -3.9980     5.6260    24.4200 hc         1 4Q9       0.069200
     48 H18         -9.0750     3.5500    22.0380 ha         1 4Q9       0.125000
     49 H19        -11.3630     3.7980    21.1280 ha         1 4Q9       0.119000
     50 H20        -13.2130     4.5060    22.6390 ha         1 4Q9       0.120000
     51 H21        -12.7440     4.9860    25.0100 ha         1 4Q9       0.120000
     52 H22        -10.0800     5.8830    26.4790 hc         1 4Q9       0.058700
     53 H23        -11.2930     4.6860    26.9290 hc         1 4Q9       0.058700
     54 H24         -9.5950     4.2140    26.7400 hc         1 4Q9       0.058700
@<TRIPOS>BOND
     1     1     2 2   
     2     2     3 1   
     3     2    24 1   
     4     2    32 2   
     5     3     4 1   
     6     3    23 1   
     7     3    33 1   
     8     4     5 1   
     9     4    22 1   
    10     4    34 1   
    11     5     6 1   
    12     5    13 2   
    13     6     7 ar  
    14     6    12 ar  
    15     7     8 ar  
    16     7    35 1   
    17     8     9 ar  
    18     8    36 1   
    19     9    10 1   
    20     9    11 ar  
    21    10    37 1   
    22    11    12 ar  
    23    11    38 1   
    24    12    39 1   
    25    13    14 1   
    26    13    21 1   
    27    14    15 ar  
    28    14    20 ar  
    29    15    16 ar  
    30    15    40 1   
    31    16    17 ar  
    32    16    41 1   
    33    17    18 1   
    34    17    19 ar  
    35    18    42 1   
    36    19    20 ar  
    37    19    43 1   
    38    20    44 1   
    39    21    22 1   
    40    21    23 1   
    41    21    45 1   
    42    23    46 1   
    43    23    47 1   
    44    24    25 1   
    45    25    26 ar  
    46    25    30 ar  
    47    26    27 ar  
    48    26    48 1   
    49    27    28 ar  
    50    27    49 1   
    51    28    29 ar  
    52    28    50 1   
    53    29    30 ar  
    54    29    51 1   
    55    30    31 1   
    56    31    52 1   
    57    31    53 1   
    58    31    54 1   
@<TRIPOS>SUBSTRUCTURE
     1 4Q9         1 TEMP              0 ****  ****    0 ROOT
