@<TRIPOS>MOLECULE
4Q9
   54    58     1     0     0
SMALL
No Charge or Current Charge


@<TRIPOS>ATOM
      1 O01         -7.9770     6.5160    24.8910 o          1 4Q9      -0.531500
      2 S02         -7.1930     5.3580    25.3400 s6         1 4Q9       1.344700
      3 C03         -5.9330     4.8880    24.0360 c5         1 4Q9      -0.342700
      4 C04         -6.4370     5.4060    22.6510 c5         1 4Q9       0.215500
      5 C05         -5.5130     4.6750    21.6690 ce         1 4Q9      -0.073400
      6 C06         -5.9400     3.5030    20.8620 ca         1 4Q9      -0.076800
      7 C07         -5.1810     2.3170    20.8820 ca         1 4Q9      -0.057500
      8 C08         -5.5870     1.2060    20.1230 ca         1 4Q9      -0.172000
      9 C09         -6.7510     1.2740    19.3430 ca         1 4Q9       0.142100
     10 O10         -7.1350     0.1920    18.6100 oh         1 4Q9      -0.534100
     11 C11         -7.5140     2.4530    19.3220 ca         1 4Q9      -0.172000
     12 C12         -7.1110     3.5650    20.0840 ca         1 4Q9      -0.057500
     13 C13         -4.2900     5.2790    21.7770 cf         1 4Q9      -0.063400
     14 C14         -3.0040     5.0700    21.0790 ca         1 4Q9      -0.078800
     15 C15         -2.9640     4.4900    19.7940 ca         1 4Q9      -0.055000
     16 C16         -1.7370     4.2980    19.1350 ca         1 4Q9      -0.171500
     17 C17         -0.5400     4.6870    19.7500 ca         1 4Q9       0.141100
     18 O18          0.6440     4.4960    19.1030 oh         1 4Q9      -0.535100
     19 C19         -0.5660     5.2730    21.0250 ca         1 4Q9      -0.171500
     20 C20         -1.7930     5.4670    21.6850 ca         1 4Q9      -0.055000
     21 C21         -4.5260     6.4040    22.8120 c5         1 4Q9       0.182500
     22 O22         -5.8970     6.7270    22.6080 os         1 4Q9      -0.420000
     23 C23         -4.5950     5.7200    24.2100 c5         1 4Q9      -0.064400
     24 O24         -8.1700     4.0270    25.3330 os         1 4Q9      -0.482800
     25 C25         -9.1330     3.8940    24.3640 ca         1 4Q9       0.141100
     26 C26         -8.8400     3.1290    23.2210 ca         1 4Q9      -0.113000
     27 C27         -9.8110     2.9470    22.2230 ca         1 4Q9      -0.100000
     28 C28        -11.0830     3.5220    22.3720 ca         1 4Q9      -0.103000
     29 C29        -11.3910     4.2590    23.5280 ca         1 4Q9      -0.094000
     30 C30        -10.4280     4.4400    24.5400 ca         1 4Q9      -0.070300
     31 C31        -10.8160     5.2030    25.8040 c3         1 4Q9      -0.065800
     32 O32         -6.5330     5.4010    26.6520 o          1 4Q9      -0.531500
     33 H1          -5.7960     3.8030    24.0930 h1         1 4Q9       0.117700
     34 H2          -7.5150     5.3680    22.4360 h1         1 4Q9       0.105700
     35 H3          -4.2780     2.2590    21.4860 ha         1 4Q9       0.119500
     36 H4          -4.9980     0.2930    20.1400 ha         1 4Q9       0.124500
     37 H5          -7.9580     0.4210    18.1270 ho         1 4Q9       0.464000
     38 H6          -8.4170     2.5160    18.7200 ha         1 4Q9       0.124500
     39 H7          -7.7040     4.4770    20.0620 ha         1 4Q9       0.119500
     40 H8          -3.8840     4.2020    19.2920 ha         1 4Q9       0.119500
     41 H9          -1.7180     3.8510    18.1450 ha         1 4Q9       0.124000
     42 H10          1.3690     4.8260    19.6770 ho         1 4Q9       0.464000
     43 H11          0.3570     5.5800    21.5110 ha         1 4Q9       0.124000
     44 H12         -1.7940     5.9150    22.6760 ha         1 4Q9       0.119500
     45 H13         -3.8680     7.2810    22.7300 h1         1 4Q9       0.105700
     46 H16         -4.6390     6.4690    25.0090 hc         1 4Q9       0.069200
     47 H17         -3.7230     5.0830    24.4040 hc         1 4Q9       0.069200
     48 H18         -7.8600     2.6720    23.1090 ha         1 4Q9       0.125000
     49 H19         -9.5810     2.3570    21.3390 ha         1 4Q9       0.119000
     50 H20        -11.8360     3.3820    21.5990 ha         1 4Q9       0.120000
     51 H21        -12.3870     4.6820    23.6410 ha         1 4Q9       0.120000
     52 H22        -10.6080     6.2740    25.6980 hc         1 4Q9       0.058700
     53 H23        -11.8860     5.0960    26.0200 hc         1 4Q9       0.058700
     54 H24        -10.2740     4.8370    26.6840 hc         1 4Q9       0.058700
@<TRIPOS>BOND
     1     1     2 2   
     2     2     3 1   
     3     2    24 1   
     4     2    32 2   
     5     3     4 1   
     6     3    23 1   
     7     3    33 1   
     8     4     5 1   
     9     4    22 1   
    10     4    34 1   
    11     5     6 1   
    12     5    13 2   
    13     6     7 ar  
    14     6    12 ar  
    15     7     8 ar  
    16     7    35 1   
    17     8     9 ar  
    18     8    36 1   
    19     9    10 1   
    20     9    11 ar  
    21    10    37 1   
    22    11    12 ar  
    23    11    38 1   
    24    12    39 1   
    25    13    14 1   
    26    13    21 1   
    27    14    15 ar  
    28    14    20 ar  
    29    15    16 ar  
    30    15    40 1   
    31    16    17 ar  
    32    16    41 1   
    33    17    18 1   
    34    17    19 ar  
    35    18    42 1   
    36    19    20 ar  
    37    19    43 1   
    38    20    44 1   
    39    21    22 1   
    40    21    23 1   
    41    21    45 1   
    42    23    46 1   
    43    23    47 1   
    44    24    25 1   
    45    25    26 ar  
    46    25    30 ar  
    47    26    27 ar  
    48    26    48 1   
    49    27    28 ar  
    50    27    49 1   
    51    28    29 ar  
    52    28    50 1   
    53    29    30 ar  
    54    29    51 1   
    55    30    31 1   
    56    31    52 1   
    57    31    53 1   
    58    31    54 1   
@<TRIPOS>SUBSTRUCTURE
     1 4Q9         1 TEMP              0 ****  ****    0 ROOT
