@<TRIPOS>MOLECULE
4QA
   73    77     1     0     0
SMALL
bcc


@<TRIPOS>ATOM
      1 C1          -1.4970    -0.4530     0.0060 c5         1 4QA       0.041100
      2 C3          -3.5490    -1.1860    -0.8280 c          1 4QA       0.841900
      3 C5          -2.5420     0.6250    -0.2390 c2         1 4QA       0.662200
      4 C6          -1.1130    -0.4880     1.4950 c6         1 4QA      -0.073400
      5 N2          -2.3000    -1.5890    -0.4190 n          1 4QA      -0.461000
      6 N4          -3.6760     0.1830    -0.6940 ne         1 4QA      -0.713100
      7 C7           0.1250    -1.3230     1.7870 c6         1 4QA       0.165300
      8 N8           1.2380    -0.8720     0.9760 n3         1 4QA      -0.726600
      9 C9           0.9490    -1.0620    -0.4320 c6         1 4QA       0.165300
     10 C10         -0.2440    -0.2170    -0.8530 c6         1 4QA      -0.073400
     11 O11         -4.4120    -1.9370    -1.2420 o          1 4QA      -0.594500
     12 N12         -2.2840     1.8960     0.0060 nu         1 4QA      -0.815200
     13 C13         -1.9000    -2.9380    -0.5110 ca         1 4QA       0.105600
     14 C14         -3.2720     2.9610    -0.1000 c6         1 4QA       0.233500
     15 C15         -4.1930     2.9850     1.1190 c6         1 4QA      -0.090900
     16 C16         -5.1970     4.1290     1.0250 c6         1 4QA      -0.070900
     17 C17         -4.4930     5.4700     0.8440 c6         1 4QA      -0.078400
     18 C18         -3.5630     5.4430    -0.3640 c6         1 4QA      -0.070900
     19 C19         -2.5610     4.2960    -0.2820 c6         1 4QA      -0.090900
     20 C20         -1.3600    -3.4290    -1.6930 ca         1 4QA      -0.140000
     21 C21         -0.9790    -4.7600    -1.7800 ca         1 4QA      -0.100000
     22 C22         -1.1390    -5.6140    -0.6970 ca         1 4QA      -0.170000
     23 C23         -1.6900    -5.1040     0.4620 ca         1 4QA       0.136900
     24 C24         -2.0810    -3.7840     0.5780 ca         1 4QA      -0.166000
     25 F25         -1.8570    -5.9170     1.5160 f          1 4QA      -0.142900
     26 C26          2.4830    -1.4930     1.3670 c3         1 4QA       0.215100
     27 C27          3.6980    -0.7840     0.8220 ca         1 4QA      -0.053300
     28 C28          4.8570    -1.5040     0.5390 ca         1 4QA      -0.168000
     29 C29          5.9890    -0.8380     0.1000 ca         1 4QA      -0.091000
     30 C30          5.9910     0.5400    -0.0810 ca         1 4QA      -0.217000
     31 C31          4.8290     1.2620     0.1880 ca         1 4QA       0.148100
     32 C32          3.6920     0.5910     0.6420 ca         1 4QA      -0.151000
     33 O33          4.7040     2.5990     0.0620 os         1 4QA      -0.334900
     34 C34          5.7480     3.3810    -0.5220 c3         1 4QA       0.157100
     35 C35          5.7800     3.2090    -2.0320 c3         1 4QA      -0.107100
     36 C36          5.4710     4.8170    -0.1240 c3         1 4QA      -0.107100
     37 H1          -0.9010     0.5330     1.8240 hc         1 4QA       0.058200
     38 H2          -1.9620    -0.8410     2.0850 hc         1 4QA       0.058200
     39 H3           0.3790    -1.1930     2.8420 h1         1 4QA       0.043700
     40 H4          -0.0770    -2.3960     1.6430 h1         1 4QA       0.043700
     41 H6           1.8120    -0.7460    -1.0220 h1         1 4QA       0.043700
     42 H7           0.7850    -2.1260    -0.6650 h1         1 4QA       0.043700
     43 H8          -0.4800    -0.3890    -1.9050 hc         1 4QA       0.058200
     44 H9           0.0490     0.8320    -0.7620 hc         1 4QA       0.058200
     45 H10         -1.3890     2.1370     0.4040 hn         1 4QA       0.442800
     46 H11         -3.8730     2.7570    -0.9920 h1         1 4QA       0.087700
     47 H12         -4.7110     2.0270     1.2060 hc         1 4QA       0.047950
     48 H13         -3.5800     3.1020     2.0190 hc         1 4QA       0.047950
     49 H14         -5.8700     3.9560     0.1790 hc         1 4QA       0.045950
     50 H15         -5.8240     4.1440     1.9190 hc         1 4QA       0.045950
     51 H16         -5.2280     6.2700     0.7330 hc         1 4QA       0.041200
     52 H17         -3.9150     5.7000     1.7450 hc         1 4QA       0.041200
     53 H18         -4.1600     5.3350    -1.2770 hc         1 4QA       0.045950
     54 H19         -3.0290     6.3900    -0.4550 hc         1 4QA       0.045950
     55 H20         -1.8840     4.4620     0.5650 hc         1 4QA       0.047950
     56 H21         -1.9410     4.2680    -1.1820 hc         1 4QA       0.047950
     57 H22         -1.2330    -2.7670    -2.5390 ha         1 4QA       0.143000
     58 H23         -0.5540    -5.1410    -2.6990 ha         1 4QA       0.138000
     59 H24         -0.8440    -6.6540    -0.7550 ha         1 4QA       0.150000
     60 H25         -2.5140    -3.4160     1.4990 ha         1 4QA       0.156000
     61 H26          2.5390    -1.4730     2.4600 h1         1 4QA       0.042700
     62 H27          2.5280    -2.5580     1.0830 h1         1 4QA       0.042700
     63 H28          4.8710    -2.5800     0.6610 ha         1 4QA       0.131000
     64 H29          6.8910    -1.3950    -0.1210 ha         1 4QA       0.129000
     65 H30          6.8950     1.0200    -0.4310 ha         1 4QA       0.134000
     66 H31          2.7890     1.1540     0.8450 ha         1 4QA       0.155000
     67 H32          6.7120     3.0830    -0.0950 h1         1 4QA       0.041700
     68 H33          4.8350     3.5240    -2.4770 hc         1 4QA       0.046200
     69 H34          6.5750     3.8240    -2.4560 hc         1 4QA       0.046200
     70 H35          5.9710     2.1780    -2.3310 hc         1 4QA       0.046200
     71 H36          5.4590     4.9340     0.9600 hc         1 4QA       0.046200
     72 H37          6.2510     5.4670    -0.5210 hc         1 4QA       0.046200
     73 H38          4.5140     5.1590    -0.5210 hc         1 4QA       0.046200
@<TRIPOS>BOND
     1     1     3 1   
     2     1     4 1   
     3     1     5 1   
     4     1    10 1   
     5     2     5 1   
     6     2     6 1   
     7     2    11 2   
     8     3     6 2   
     9     3    12 1   
    10     4     7 1   
    11     4    37 1   
    12     4    38 1   
    13     5    13 1   
    14     7     8 1   
    15     7    39 1   
    16     7    40 1   
    17     8     9 1   
    18     8    26 1   
    19     9    10 1   
    20     9    41 1   
    21     9    42 1   
    22    10    43 1   
    23    10    44 1   
    24    12    14 1   
    25    12    45 1   
    26    13    20 ar  
    27    13    24 ar  
    28    14    15 1   
    29    14    19 1   
    30    14    46 1   
    31    15    16 1   
    32    15    47 1   
    33    15    48 1   
    34    16    17 1   
    35    16    49 1   
    36    16    50 1   
    37    17    18 1   
    38    17    51 1   
    39    17    52 1   
    40    18    19 1   
    41    18    53 1   
    42    18    54 1   
    43    19    55 1   
    44    19    56 1   
    45    20    21 ar  
    46    20    57 1   
    47    21    22 ar  
    48    21    58 1   
    49    22    23 ar  
    50    22    59 1   
    51    23    24 ar  
    52    23    25 1   
    53    24    60 1   
    54    26    27 1   
    55    26    61 1   
    56    26    62 1   
    57    27    28 ar  
    58    27    32 ar  
    59    28    29 ar  
    60    28    63 1   
    61    29    30 ar  
    62    29    64 1   
    63    30    31 ar  
    64    30    65 1   
    65    31    32 ar  
    66    31    33 1   
    67    32    66 1   
    68    33    34 1   
    69    34    35 1   
    70    34    36 1   
    71    34    67 1   
    72    35    68 1   
    73    35    69 1   
    74    35    70 1   
    75    36    71 1   
    76    36    72 1   
    77    36    73 1   
@<TRIPOS>SUBSTRUCTURE
     1 4QA         1 TEMP              0 ****  ****    0 ROOT
