@<TRIPOS>MOLECULE
4QA
   73    77     1     0     0
SMALL
No Charge or Current Charge


@<TRIPOS>ATOM
      1 C1          -1.5710    -0.3670     0.0460 c5         1 4QA       0.041100
      2 C3          -3.5820    -1.3180    -0.8090 c          1 4QA       0.699400
      3 C5          -2.7310     0.5940    -0.2410 c2         1 4QA       0.662200
      4 C6          -1.1760    -0.3520     1.5560 c6         1 4QA      -0.073400
      5 N2          -2.2820    -1.6030    -0.3740 n          1 4QA      -0.301400
      6 N4          -3.7890     0.0410    -0.7050 ne         1 4QA      -0.713100
      7 C7           0.1180    -1.1430     1.8600 c6         1 4QA       0.165300
      8 N8           1.2510    -0.6840     1.0170 n3         1 4QA      -0.726600
      9 C9           0.9360    -0.8450    -0.4290 c6         1 4QA       0.165300
     10 C10         -0.3210    -0.0380    -0.8280 c6         1 4QA      -0.073400
     11 O11         -4.3870    -2.1410    -1.2110 o          1 4QA      -0.519000
     12 N12         -2.6230     1.9550    -0.0360 nu         1 4QA      -0.870400
     13 C13         -1.7300    -2.9200    -0.3550 ca         1 4QA       0.013000
     14 C14         -3.7000     2.9330    -0.2190 c6         1 4QA       0.233500
     15 C15         -4.5900     2.9760     1.0500 c6         1 4QA      -0.090900
     16 C16         -5.6920     4.0590     0.9280 c6         1 4QA      -0.070900
     17 C17         -5.0790     5.4500     0.6320 c6         1 4QA      -0.078400
     18 C18         -4.1800     5.4120    -0.6290 c6         1 4QA      -0.070900
     19 C19         -3.0820     4.3260    -0.4990 c6         1 4QA      -0.090900
     20 C20         -1.1460    -3.4540    -1.5190 ca         1 4QA      -0.122000
     21 C21         -0.6820    -4.7810    -1.5370 ca         1 4QA      -0.082000
     22 C22         -0.8390    -5.5920    -0.3990 ca         1 4QA      -0.152000
     23 C23         -1.4760    -5.0770     0.7410 ca         1 4QA       0.172000
     24 C24         -1.9390    -3.7520     0.7590 ca         1 4QA      -0.148000
     25 F25         -1.6530    -5.8640     1.8240 f          1 4QA      -0.178000
     26 C26          2.5260    -1.3390     1.4010 c3         1 4QA       0.215100
     27 C27          3.7450    -0.7750     0.6750 ca         1 4QA      -0.053300
     28 C28          4.4990    -1.5840    -0.1970 ca         1 4QA      -0.150000
     29 C29          5.6190    -1.0590    -0.8620 ca         1 4QA      -0.073000
     30 C30          5.9920     0.2820    -0.6650 ca         1 4QA      -0.199000
     31 C31          5.2370     1.1050     0.1990 ca         1 4QA       0.148100
     32 C32          4.1250     0.5680     0.8670 ca         1 4QA      -0.133000
     33 O33          5.5510     2.4290     0.4420 os         1 4QA      -0.358100
     34 C34          6.5170     3.1720    -0.3280 c3         1 4QA       0.180300
     35 C35          5.9120     3.4760    -1.7170 c3         1 4QA      -0.107100
     36 C36          6.8200     4.4570     0.4660 c3         1 4QA      -0.107100
     37 H1          -1.0210     0.6840     1.8840 hc         1 4QA       0.058200
     38 H2          -2.0030    -0.7420     2.1660 hc         1 4QA       0.058200
     39 H3           0.3610    -1.0110     2.9250 h1         1 4QA       0.043700
     40 H4          -0.0550    -2.2170     1.7090 h1         1 4QA       0.043700
     41 H6           1.7740    -0.4920    -1.0480 h1         1 4QA       0.043700
     42 H7           0.7940    -1.9070    -0.6690 h1         1 4QA       0.043700
     43 H8          -0.5490    -0.2060    -1.8900 hc         1 4QA       0.058200
     44 H9          -0.0780     1.0290    -0.7360 hc         1 4QA       0.058200
     45 H10         -1.7320     2.2750     0.3350 hn         1 4QA       0.498000
     46 H11         -4.3260     2.6600    -1.0840 h1         1 4QA       0.087700
     47 H12         -5.0570     1.9950     1.2150 hc         1 4QA       0.047950
     48 H13         -3.9720     3.1810     1.9350 hc         1 4QA       0.047950
     49 H14         -6.3920     3.7850     0.1260 hc         1 4QA       0.045950
     50 H15         -6.2800     4.1000     1.8550 hc         1 4QA       0.045950
     51 H16         -5.8800     6.1900     0.4970 hc         1 4QA       0.041200
     52 H17         -4.4890     5.7850     1.4970 hc         1 4QA       0.041200
     53 H18         -4.7970     5.2120    -1.5170 hc         1 4QA       0.045950
     54 H19         -3.7170     6.3950    -0.7870 hc         1 4QA       0.045950
     55 H20         -2.3910     4.6030     0.3100 hc         1 4QA       0.047950
     56 H21         -2.4880     4.2920    -1.4230 hc         1 4QA       0.047950
     57 H22         -1.0410    -2.8340    -2.4070 ha         1 4QA       0.125000
     58 H23         -0.2110    -5.1820    -2.4320 ha         1 4QA       0.120000
     59 H24         -0.4860    -6.6200    -0.4050 ha         1 4QA       0.132000
     60 H25         -2.4480    -3.3720     1.6400 ha         1 4QA       0.138000
     61 H26          2.6940    -1.2150     2.4790 h1         1 4QA       0.042700
     62 H27          2.4620    -2.4200     1.2140 h1         1 4QA       0.042700
     63 H28          4.2180    -2.6220    -0.3590 ha         1 4QA       0.113000
     64 H29          6.1990    -1.6920    -1.5310 ha         1 4QA       0.111000
     65 H30          6.8660     0.6590    -1.1870 ha         1 4QA       0.116000
     66 H31          3.5450     1.2010     1.5340 ha         1 4QA       0.137000
     67 H32          7.4550     2.6130    -0.4370 h1         1 4QA       0.041700
     68 H33          4.9630     4.0160    -1.6180 hc         1 4QA       0.046200
     69 H34          6.6000     4.0970    -2.3040 hc         1 4QA       0.046200
     70 H35          5.7280     2.5550    -2.2820 hc         1 4QA       0.046200
     71 H36          7.2370     4.2100     1.4500 hc         1 4QA       0.046200
     72 H37          7.5510     5.0750    -0.0680 hc         1 4QA       0.046200
     73 H38          5.9090     5.0500     0.6140 hc         1 4QA       0.046200
@<TRIPOS>BOND
     1     1     3 1   
     2     1     4 1   
     3     1     5 1   
     4     1    10 1   
     5     2     5 1   
     6     2     6 1   
     7     2    11 2   
     8     3     6 2   
     9     3    12 1   
    10     4     7 1   
    11     4    37 1   
    12     4    38 1   
    13     5    13 1   
    14     7     8 1   
    15     7    39 1   
    16     7    40 1   
    17     8     9 1   
    18     8    26 1   
    19     9    10 1   
    20     9    41 1   
    21     9    42 1   
    22    10    43 1   
    23    10    44 1   
    24    12    14 1   
    25    12    45 1   
    26    13    20 ar  
    27    13    24 ar  
    28    14    15 1   
    29    14    19 1   
    30    14    46 1   
    31    15    16 1   
    32    15    47 1   
    33    15    48 1   
    34    16    17 1   
    35    16    49 1   
    36    16    50 1   
    37    17    18 1   
    38    17    51 1   
    39    17    52 1   
    40    18    19 1   
    41    18    53 1   
    42    18    54 1   
    43    19    55 1   
    44    19    56 1   
    45    20    21 ar  
    46    20    57 1   
    47    21    22 ar  
    48    21    58 1   
    49    22    23 ar  
    50    22    59 1   
    51    23    24 ar  
    52    23    25 1   
    53    24    60 1   
    54    26    27 1   
    55    26    61 1   
    56    26    62 1   
    57    27    28 ar  
    58    27    32 ar  
    59    28    29 ar  
    60    28    63 1   
    61    29    30 ar  
    62    29    64 1   
    63    30    31 ar  
    64    30    65 1   
    65    31    32 ar  
    66    31    33 1   
    67    32    66 1   
    68    33    34 1   
    69    34    35 1   
    70    34    36 1   
    71    34    67 1   
    72    35    68 1   
    73    35    69 1   
    74    35    70 1   
    75    36    71 1   
    76    36    72 1   
    77    36    73 1   
@<TRIPOS>SUBSTRUCTURE
     1 4QA         1 TEMP              0 ****  ****    0 ROOT
