@<TRIPOS>MOLECULE
4QB
   67    69     1     0     0
SMALL
abcg2


@<TRIPOS>ATOM
      1 O37         35.0370    65.9170     6.1730 o          1 4QB      -0.733000
      2 C6          35.1710    65.7640     4.9260 c          1 4QB       0.714000
      3 O35         35.2690    66.6770     4.0770 o          1 4QB      -0.733000
      4 C7          35.2560    64.3080     4.4070 c3         1 4QB      -0.215400
      5 C28         34.0870    63.4080     4.8560 c3         1 4QB       0.005700
      6 C18         34.3660    62.0130     4.3440 c          1 4QB       0.591900
      7 O33         33.9950    61.6040     3.2670 o          1 4QB      -0.552100
      8 N5          33.9910    63.4050     6.3010 ns         1 4QB      -0.489900
      9 C16         33.1750    62.5590     6.9520 c          1 4QB       0.581100
     10 O34         32.5990    61.6350     6.3640 o          1 4QB      -0.660100
     11 C10         32.9930    62.8500     8.4350 c3         1 4QB      -0.134700
     12 C9          32.8380    61.5750     9.2620 c3         1 4QB      -0.060400
     13 C31         34.1060    60.7240     9.2830 c3         1 4QB      -0.089100
     14 C11         31.8290    63.8510     8.6150 c3         1 4QB      -0.065400
     15 C12         30.4290    63.2850     8.3680 c3         1 4QB      -0.076400
     16 C13         29.3340    64.3410     8.1810 c3         1 4QB      -0.094400
     17 C14         29.1360    65.3150     9.3430 c3         1 4QB       0.101000
     18 N4          30.1670    66.3420     9.3750 ns         1 4QB      -0.503900
     19 C19         30.8680    66.6910    10.4700 c          1 4QB       0.618700
     20 O36         30.5800    66.2900    11.6050 o          1 4QB      -0.635100
     21 C17         32.0470    67.5790    10.2440 ca         1 4QB      -0.197600
     22 C20         32.4870    68.4030    11.2850 ca         1 4QB      -0.041500
     23 C21         33.6080    69.1940    11.1380 ca         1 4QB      -0.161500
     24 C22         34.3510    69.1730     9.9450 ca         1 4QB       0.326000
     25 C23         33.9200    68.3490     8.8990 ca         1 4QB      -0.161500
     26 C24         32.7810    67.5730     9.0570 ca         1 4QB      -0.041500
     27 N3          35.4840    69.9810     9.8930 nu         1 4QB      -0.942900
     28 C26         36.4690    70.0880     8.9440 ca         1 4QB       0.553900
     29 N1          36.4310    69.4250     7.8130 nb         1 4QB      -0.666000
     30 C27         37.5660    70.9690     9.2550 ca         1 4QB       0.259900
     31 N2          38.5680    71.1430     8.4510 nb         1 4QB      -0.614000
     32 C29         38.5590    70.4540     7.2650 ca         1 4QB       0.172000
     33 C25         39.6250    70.6010     6.3590 ca         1 4QB      -0.085000
     34 C8          39.6170    69.9120     5.1680 ca         1 4QB      -0.119000
     35 C30         37.4750    69.5910     6.9510 ca         1 4QB       0.273000
     36 C15         37.4860    68.8960     5.7230 ca         1 4QB      -0.057000
     37 C32         38.5410    69.0580     4.8530 ca         1 4QB      -0.100000
     38 H71         36.1930    63.8780     4.7750 hc         1 4QB       0.042700
     39 H72         35.2880    64.3130     3.3200 hc         1 4QB       0.042700
     40 H28         33.1560    63.7570     4.3970 h1         1 4QB       0.065700
     41 H18         35.0220    61.4060     4.9960 h4         1 4QB      -0.021800
     42 HN5         34.3570    64.2500     6.7410 hn         1 4QB       0.380500
     43 H10         33.8970    63.3660     8.7710 hc         1 4QB       0.064700
     44 H91         32.0040    60.9870     8.8750 hc         1 4QB       0.042700
     45 H92         32.5720    61.8650    10.2830 hc         1 4QB       0.042700
     46 H311        34.9470    61.2880     9.6930 hc         1 4QB       0.031033
     47 H312        33.9700    59.8310     9.8960 hc         1 4QB       0.031033
     48 H313        34.3790    60.4000     8.2770 hc         1 4QB       0.031033
     49 H111        32.0020    64.6970     7.9450 hc         1 4QB       0.047700
     50 H112        31.8950    64.2440     9.6310 hc         1 4QB       0.047700
     51 H121        30.1500    62.6280     9.1970 hc         1 4QB       0.049200
     52 H122        30.4470    62.6590     7.4720 hc         1 4QB       0.049200
     53 H131        28.3830    63.8270     8.0170 hc         1 4QB       0.041700
     54 H132        29.5310    64.9170     7.2700 hc         1 4QB       0.041700
     55 H141        29.1630    64.7940    10.3000 h1         1 4QB       0.049700
     56 H142        28.1540    65.7900     9.2580 h1         1 4QB       0.049700
     57 HN4         30.4200    66.7580     8.4930 hn         1 4QB       0.317500
     58 H20         31.9380    68.4160    12.2170 ha         1 4QB       0.126500
     59 H21         33.9300    69.8320    11.9530 ha         1 4QB       0.144000
     60 H23         34.4810    68.3050     7.9830 ha         1 4QB       0.144000
     61 H24         32.4950    66.9280     8.2370 ha         1 4QB       0.126500
     62 HN3         35.6390    70.5360    10.7210 hn         1 4QB       0.487000
     63 H27         37.5650    71.5100    10.1980 h4         1 4QB       0.011100
     64 H25         40.4400    71.2640     6.6240 ha         1 4QB       0.115000
     65 H8          40.4360    70.0230     4.4700 ha         1 4QB       0.106000
     66 H15         36.6580    68.2400     5.4800 ha         1 4QB       0.198000
     67 H32         38.5450    68.5210     3.9130 ha         1 4QB       0.128000
@<TRIPOS>BOND
     1     1     2 1   
     2     2     3 1   
     3     2     4 1   
     4     4     5 1   
     5     4    38 1   
     6     4    39 1   
     7     5     6 1   
     8     5     8 1   
     9     5    40 1   
    10     6     7 2   
    11     6    41 1   
    12     8     9 1   
    13     8    42 1   
    14     9    10 2   
    15     9    11 1   
    16    11    12 1   
    17    11    14 1   
    18    11    43 1   
    19    12    13 1   
    20    12    44 1   
    21    12    45 1   
    22    13    46 1   
    23    13    47 1   
    24    13    48 1   
    25    14    15 1   
    26    14    49 1   
    27    14    50 1   
    28    15    16 1   
    29    15    51 1   
    30    15    52 1   
    31    16    17 1   
    32    16    53 1   
    33    16    54 1   
    34    17    18 1   
    35    17    55 1   
    36    17    56 1   
    37    18    19 1   
    38    18    57 1   
    39    19    20 2   
    40    19    21 1   
    41    21    22 ar  
    42    21    26 ar  
    43    22    23 ar  
    44    22    58 1   
    45    23    24 ar  
    46    23    59 1   
    47    24    25 ar  
    48    24    27 1   
    49    25    26 ar  
    50    25    60 1   
    51    26    61 1   
    52    27    28 1   
    53    27    62 1   
    54    28    29 ar  
    55    28    30 ar  
    56    29    35 ar  
    57    30    31 ar  
    58    30    63 1   
    59    31    32 ar  
    60    32    33 ar  
    61    32    35 ar  
    62    33    34 ar  
    63    33    64 1   
    64    34    37 ar  
    65    34    65 1   
    66    35    36 ar  
    67    36    37 ar  
    68    36    66 1   
    69    37    67 1   
@<TRIPOS>SUBSTRUCTURE
     1 4QB         1 TEMP              0 ****  ****    0 ROOT
