@<TRIPOS>MOLECULE
4QB
   67    69     1     0     0
SMALL
No Charge or Current Charge


@<TRIPOS>ATOM
      1 O37         35.7430    65.5240     5.2300 o          1 4QB      -0.733000
      2 C6          35.4050    65.0230     4.1690 c          1 4QB       0.714000
      3 O35         34.8430    65.6350     3.2740 o          1 4QB      -0.733000
      4 C7          35.6490    63.5210     3.9750 c3         1 4QB      -0.215400
      5 C28         34.4380    62.6880     4.4720 c3         1 4QB       0.005700
      6 C18         34.6670    61.1660     4.2660 c          1 4QB       0.591900
      7 O33         34.0140    60.4730     3.4900 o          1 4QB      -0.552100
      8 N5          34.1490    62.9800     5.8920 ns         1 4QB      -0.489900
      9 C16         33.0170    62.5840     6.5680 c          1 4QB       0.581100
     10 O34         32.1660    61.8850     6.0370 o          1 4QB      -0.660100
     11 C10         32.9320    63.0670     8.0360 c3         1 4QB      -0.134700
     12 C9          32.9190    61.8830     9.0430 c3         1 4QB      -0.060400
     13 C31         34.1740    60.9890     8.9680 c3         1 4QB      -0.089100
     14 C11         31.7780    64.0880     8.2650 c3         1 4QB      -0.065400
     15 C12         30.3370    63.5080     8.2840 c3         1 4QB      -0.076400
     16 C13         29.1980    64.5630     8.2930 c3         1 4QB      -0.094400
     17 C14         29.0970    65.4370     9.5640 c3         1 4QB       0.101000
     18 N4          30.1510    66.4500     9.6260 ns         1 4QB      -0.503900
     19 C19         30.8240    66.8250    10.7680 c          1 4QB       0.618700
     20 O36         30.4910    66.4110    11.8700 o          1 4QB      -0.635100
     21 C17         32.0050    67.7540    10.5780 ca         1 4QB      -0.197600
     22 C20         32.7060    68.2270    11.7090 ca         1 4QB      -0.041500
     23 C21         33.8210    69.0700    11.5620 ca         1 4QB      -0.161500
     24 C22         34.2710    69.4470    10.2890 ca         1 4QB       0.326000
     25 C23         33.5650    68.9990     9.1600 ca         1 4QB      -0.161500
     26 C24         32.4480    68.1580     9.2950 ca         1 4QB      -0.041500
     27 N3          35.3830    70.2880    10.1870 nu         1 4QB      -0.942900
     28 C26         36.3860    70.4580     9.2280 ca         1 4QB       0.553900
     29 N1          36.4560    69.4910     8.2950 nb         1 4QB      -0.666000
     30 C27         37.3140    71.5460     9.2510 ca         1 4QB       0.259900
     31 N2          38.3050    71.6830     8.3270 nb         1 4QB      -0.614000
     32 C29         38.3660    70.7110     7.3780 ca         1 4QB       0.172000
     33 C25         39.3620    70.7790     6.3840 ca         1 4QB      -0.085000
     34 C8          39.4580    69.7930     5.3880 ca         1 4QB      -0.119000
     35 C30         37.4390    69.6110     7.3630 ca         1 4QB       0.273000
     36 C15         37.5540    68.6350     6.3560 ca         1 4QB      -0.057000
     37 C32         38.5550    68.7200     5.3740 ca         1 4QB      -0.100000
     38 H71         36.5090    63.1980     4.5750 hc         1 4QB       0.042700
     39 H72         35.7480    63.2920     2.9070 hc         1 4QB       0.042700
     40 H28         33.5550    62.9640     3.8800 h1         1 4QB       0.065700
     41 H18         35.4820    60.7210     4.8810 h4         1 4QB      -0.021800
     42 HN5         34.7880    63.5880     6.3960 hn         1 4QB       0.380500
     43 H10         33.8520    63.6300     8.2360 hc         1 4QB       0.064700
     44 H91         32.0340    61.2580     8.8710 hc         1 4QB       0.042700
     45 H92         32.8340    62.2790    10.0630 hc         1 4QB       0.042700
     46 H311        35.0820    61.5770     9.1460 hc         1 4QB       0.031033
     47 H312        34.1250    60.2000     9.7280 hc         1 4QB       0.031033
     48 H313        34.2590    60.5090     7.9860 hc         1 4QB       0.031033
     49 H111        31.8430    64.8670     7.4940 hc         1 4QB       0.047700
     50 H112        31.9670    64.5840     9.2240 hc         1 4QB       0.047700
     51 H121        30.2180    62.8550     9.1570 hc         1 4QB       0.049200
     52 H122        30.1910    62.8740     7.4020 hc         1 4QB       0.049200
     53 H131        28.2490    64.0250     8.1850 hc         1 4QB       0.041700
     54 H132        29.2830    65.2070     7.4090 hc         1 4QB       0.041700
     55 H141        29.1360    64.7920    10.4520 h1         1 4QB       0.049700
     56 H142        28.1290    65.9560     9.5660 h1         1 4QB       0.049700
     57 HN4         30.4700    66.8560     8.7580 hn         1 4QB       0.317500
     58 H20         32.3910    67.9390    12.7110 ha         1 4QB       0.126500
     59 H21         34.3470    69.4160    12.4470 ha         1 4QB       0.144000
     60 H23         33.8750    69.3070     8.1660 ha         1 4QB       0.144000
     61 H24         31.9450    67.8280     8.3900 ha         1 4QB       0.126500
     62 HN3         35.5520    70.8410    11.0250 hn         1 4QB       0.487000
     63 H27         37.2590    72.3160    10.0200 h4         1 4QB       0.011100
     64 H25         40.0680    71.6060     6.3870 ha         1 4QB       0.115000
     65 H8          40.2340    69.8610     4.6280 ha         1 4QB       0.106000
     66 H15         36.8550    67.8030     6.3430 ha         1 4QB       0.198000
     67 H32         38.6270    67.9550     4.6030 ha         1 4QB       0.128000
@<TRIPOS>BOND
     1     1     2 1   
     2     2     3 1   
     3     2     4 1   
     4     4     5 1   
     5     4    38 1   
     6     4    39 1   
     7     5     6 1   
     8     5     8 1   
     9     5    40 1   
    10     6     7 2   
    11     6    41 1   
    12     8     9 1   
    13     8    42 1   
    14     9    10 2   
    15     9    11 1   
    16    11    12 1   
    17    11    14 1   
    18    11    43 1   
    19    12    13 1   
    20    12    44 1   
    21    12    45 1   
    22    13    46 1   
    23    13    47 1   
    24    13    48 1   
    25    14    15 1   
    26    14    49 1   
    27    14    50 1   
    28    15    16 1   
    29    15    51 1   
    30    15    52 1   
    31    16    17 1   
    32    16    53 1   
    33    16    54 1   
    34    17    18 1   
    35    17    55 1   
    36    17    56 1   
    37    18    19 1   
    38    18    57 1   
    39    19    20 2   
    40    19    21 1   
    41    21    22 ar  
    42    21    26 ar  
    43    22    23 ar  
    44    22    58 1   
    45    23    24 ar  
    46    23    59 1   
    47    24    25 ar  
    48    24    27 1   
    49    25    26 ar  
    50    25    60 1   
    51    26    61 1   
    52    27    28 1   
    53    27    62 1   
    54    28    29 ar  
    55    28    30 ar  
    56    29    35 ar  
    57    30    31 ar  
    58    30    63 1   
    59    31    32 ar  
    60    32    33 ar  
    61    32    35 ar  
    62    33    34 ar  
    63    33    64 1   
    64    34    37 ar  
    65    34    65 1   
    66    35    36 ar  
    67    36    37 ar  
    68    36    66 1   
    69    37    67 1   
@<TRIPOS>SUBSTRUCTURE
     1 4QB         1 TEMP              0 ****  ****    0 ROOT
