@<TRIPOS>MOLECULE
4QC
   65    69     1     0     0
SMALL
No Charge or Current Charge


@<TRIPOS>ATOM
      1 C1           4.3660    -3.1190     0.1810 ca         1 4QC      -0.151600
      2 C2           4.6380    -4.0990    -0.9390 c          1 4QC       0.617700
      3 C3           4.1020    -2.5750     2.5550 ca         1 4QC      -0.113000
      4 C7           3.7640     2.5540     0.1450 cc         1 4QC       0.129300
      5 C8           2.4140     2.1790    -0.0780 cc         1 4QC      -0.115300
      6 C9           2.2990     0.8550     0.1820 cd         1 4QC      -0.213600
      7 C10          4.2810     3.9740    -0.0370 c3         1 4QC       0.297700
      8 C11         -6.5430     0.7820    -0.9430 c3         1 4QC       0.216100
      9 C12          0.2090     2.1290    -1.1660 c6         1 4QC       0.111000
     10 C13          1.0220     0.1020     0.1060 c          1 4QC       0.608600
     11 C14         -1.4350     0.3980    -0.4020 ca         1 4QC      -0.053000
     12 C15         -2.1860     0.4060    -1.5980 ca         1 4QC      -0.108000
     13 C16         -3.4600    -0.1860    -1.6500 ca         1 4QC      -0.087000
     14 C19         -1.9370    -0.3380     0.6920 ca         1 4QC      -0.108000
     15 C20         -6.0120     2.9560     0.0850 c3         1 4QC       0.156100
     16 C21         -5.4480    -2.8870    -0.3900 ca         1 4QC      -0.103000
     17 C22         -6.6880    -3.5430    -0.4320 ca         1 4QC      -0.109000
     18 C24          1.2580     3.0440    -0.4920 c6         1 4QC      -0.015100
     19 C27         -5.3510    -1.4870    -0.5750 cp         1 4QC      -0.018000
     20 F            5.5710     4.1090     0.3520 f          1 4QC      -0.106000
     21 F1           4.2190     4.3620    -1.3320 f          1 4QC      -0.106000
     22 F2           3.5600     4.8650     0.6820 f          1 4QC      -0.106000
     23 O1           0.9130    -1.0660     0.4560 o          1 4QC      -0.531000
     24 N2           3.5920     0.5030     0.5600 na         1 4QC       0.278000
     25 N3           4.5170     1.5310     0.5330 nd         1 4QC      -0.433800
     26 N4          -0.0680     0.8690    -0.4070 n          1 4QC      -0.231400
     27 C            4.3600    -3.5140     1.5410 ca         1 4QC      -0.071000
     28 C4           3.8460    -1.2340     2.2300 ca         1 4QC      -0.046000
     29 C5           3.8440    -0.8270     0.8850 ca         1 4QC      -0.012200
     30 C6           4.1060    -1.7650    -0.1310 ca         1 4QC      -0.031000
     31 C17         -4.0060    -0.8410    -0.5240 cp         1 4QC      -0.010000
     32 C18         -3.2110    -0.9270     0.6400 ca         1 4QC      -0.087000
     33 C25         -6.5480    -0.7420    -0.7890 ca         1 4QC      -0.069300
     34 N7          -6.2380     1.5130     0.3120 n3         1 4QC      -0.718600
     35 C23         -7.2180     1.2560     1.3930 c3         1 4QC       0.156100
     36 O2           4.6500    -3.7680    -2.1130 o          1 4QC      -0.595100
     37 N1           4.8800    -5.3890    -0.6200 nt         1 4QC      -0.602000
     38 C28         -7.8590    -2.8050    -0.6550 ca         1 4QC      -0.109000
     39 C29         -7.7890    -1.4140    -0.8290 ca         1 4QC      -0.110000
     40 H3           4.1010    -2.8890     3.5970 ha         1 4QC       0.126000
     41 H111        -7.5200     1.1060    -1.3280 h1         1 4QC       0.036200
     42 H112        -5.8120     1.0500    -1.7170 h1         1 4QC       0.036200
     43 H121         0.5700     1.8520    -2.1660 h1         1 4QC       0.055200
     44 H122        -0.7210     2.6980    -1.2990 h1         1 4QC       0.055200
     45 H15         -1.7890     0.8680    -2.4980 ha         1 4QC       0.119000
     46 H16         -4.0240    -0.1560    -2.5790 ha         1 4QC       0.117000
     47 H19         -1.3520    -0.4300     1.6050 ha         1 4QC       0.119000
     48 H201        -5.7090     3.4530     1.0160 h1         1 4QC       0.030033
     49 H202        -5.2160     3.1120    -0.6550 h1         1 4QC       0.030033
     50 H203        -6.9260     3.4420    -0.2840 h1         1 4QC       0.030033
     51 H21         -4.5450    -3.4690    -0.2210 ha         1 4QC       0.118000
     52 H22         -6.7410    -4.6210    -0.2930 ha         1 4QC       0.114000
     53 H241         1.5580     3.8400    -1.1870 hc         1 4QC       0.073200
     54 H242         0.8130     3.5330     0.3850 hc         1 4QC       0.073200
     55 H            4.5540    -4.5440     1.8300 ha         1 4QC       0.116000
     56 H4           3.6470    -0.5130     3.0200 ha         1 4QC       0.136000
     57 H6           4.1050    -1.4350    -1.1690 ha         1 4QC       0.154000
     58 H18         -3.5910    -1.4580     1.5100 ha         1 4QC       0.117000
     59 H231        -7.2740     0.1850     1.6280 h1         1 4QC       0.030033
     60 H232        -6.9280     1.7840     2.3110 h1         1 4QC       0.030033
     61 H233        -8.2200     1.5980     1.1010 h1         1 4QC       0.030033
     62 HN11         4.8760    -5.6850     0.3430 hn         1 4QC       0.315500
     63 HN12         5.0630    -6.0510    -1.3590 hn         1 4QC       0.315500
     64 H28         -8.8230    -3.3100    -0.6870 ha         1 4QC       0.114000
     65 H29         -8.7070    -0.8520    -0.9870 ha         1 4QC       0.110000
@<TRIPOS>BOND
     1     1     2 1   
     2     1    27 ar  
     3     1    30 ar  
     4     2    36 2   
     5     2    37 1   
     6     3    27 ar  
     7     3    28 ar  
     8     3    40 1   
     9     4     5 1   
    10     4     7 1   
    11     4    25 2   
    12     5     6 2   
    13     5    18 1   
    14     6    10 1   
    15     6    24 1   
    16     7    20 1   
    17     7    21 1   
    18     7    22 1   
    19     8    33 1   
    20     8    34 1   
    21     8    41 1   
    22     8    42 1   
    23     9    18 1   
    24     9    26 1   
    25     9    43 1   
    26     9    44 1   
    27    10    23 2   
    28    10    26 1   
    29    11    12 ar  
    30    11    14 ar  
    31    11    26 1   
    32    12    13 ar  
    33    12    45 1   
    34    13    31 ar  
    35    13    46 1   
    36    14    32 ar  
    37    14    47 1   
    38    15    34 1   
    39    15    48 1   
    40    15    49 1   
    41    15    50 1   
    42    16    17 ar  
    43    16    19 ar  
    44    16    51 1   
    45    17    38 ar  
    46    17    52 1   
    47    18    53 1   
    48    18    54 1   
    49    19    31 1   
    50    19    33 ar  
    51    24    25 1   
    52    24    29 1   
    53    27    55 1   
    54    28    29 ar  
    55    28    56 1   
    56    29    30 ar  
    57    30    57 1   
    58    31    32 ar  
    59    32    58 1   
    60    33    39 ar  
    61    34    35 1   
    62    35    59 1   
    63    35    60 1   
    64    35    61 1   
    65    37    62 1   
    66    37    63 1   
    67    38    39 ar  
    68    38    64 1   
    69    39    65 1   
@<TRIPOS>SUBSTRUCTURE
     1 4QC         1 TEMP              0 ****  ****    0 ROOT
