@<TRIPOS>MOLECULE
4QC
   65    69     1     0     0
SMALL
abcg2


@<TRIPOS>ATOM
      1 C1           4.9250    -2.9590    -0.0470 ca         1 4QC      -0.151600
      2 C2           5.8040    -3.5710    -1.0940 c          1 4QC       0.617700
      3 C3           3.7520    -3.0090     2.0600 ca         1 4QC      -0.113000
      4 C7           3.5230     2.3680     0.2030 cc         1 4QC       0.129300
      5 C8           2.1470     2.1420     0.1000 cc         1 4QC      -0.115300
      6 C9           2.0220     0.7890     0.2880 cd         1 4QC      -0.213600
      7 C10          4.2330     3.6660     0.0760 c3         1 4QC       0.297700
      8 C11         -6.5410     0.6660    -1.1720 c3         1 4QC       0.216100
      9 C12         -0.1050     2.1130    -0.8100 c6         1 4QC       0.111000
     10 C13          0.7460     0.0590     0.2800 c          1 4QC       0.608600
     11 C14         -1.5980     0.2570    -0.1390 ca         1 4QC      -0.053000
     12 C15         -2.2550     0.0670    -1.3470 ca         1 4QC      -0.108000
     13 C16         -3.5330    -0.4700    -1.3670 ca         1 4QC      -0.087000
     14 C19         -2.2250    -0.1090     1.0460 ca         1 4QC      -0.108000
     15 C20         -5.5990     2.8060    -0.6520 c3         1 4QC       0.156100
     16 C21         -5.6790    -2.7380     0.2920 ca         1 4QC      -0.103000
     17 C22         -6.9170    -3.3670     0.2900 ca         1 4QC      -0.109000
     18 C24          0.9460     2.9850    -0.1380 c6         1 4QC      -0.015100
     19 C27         -5.5260    -1.4440    -0.2010 cp         1 4QC      -0.018000
     20 F            5.5440     3.5420     0.2650 f          1 4QC      -0.106000
     21 F1           4.0470     4.2050    -1.1370 f          1 4QC      -0.106000
     22 F2           3.7730     4.5580     0.9630 f          1 4QC      -0.106000
     23 O1           0.6420    -1.1050     0.6210 o          1 4QC      -0.531000
     24 N2           3.2710     0.2950     0.4870 na         1 4QC       0.278000
     25 N3           4.1840     1.2470     0.4270 nd         1 4QC      -0.433800
     26 N4          -0.3010     0.8370    -0.1110 n          1 4QC      -0.231400
     27 C            4.5490    -3.6330     1.1110 ca         1 4QC      -0.071000
     28 C4           3.3130    -1.7110     1.8600 ca         1 4QC      -0.046000
     29 C5           3.6880    -1.0470     0.7020 ca         1 4QC      -0.012200
     30 C6           4.5000    -1.6480    -0.2410 ca         1 4QC      -0.031000
     31 C17         -4.1760    -0.8330    -0.1860 cp         1 4QC      -0.010000
     32 C18         -3.4960    -0.6560     1.0170 ca         1 4QC      -0.087000
     33 C25         -6.6470    -0.7600    -0.6940 ca         1 4QC      -0.069300
     34 N7          -6.0670     1.5460    -0.1270 n3         1 4QC      -0.718600
     35 C23         -7.0370     1.7240     0.9250 c3         1 4QC       0.156100
     36 O2           6.4830    -2.8680    -1.8290 o          1 4QC      -0.595100
     37 N1           5.7950    -4.9090    -1.1620 nt         1 4QC      -0.602000
     38 C28         -8.0230    -2.6980    -0.2100 ca         1 4QC      -0.109000
     39 C29         -7.8800    -1.4020    -0.6910 ca         1 4QC      -0.110000
     40 H3           3.4800    -3.5340     2.9650 ha         1 4QC       0.126000
     41 H111        -7.5180     0.9840    -1.5770 h1         1 4QC       0.036200
     42 H112        -5.8380     0.7240    -2.0070 h1         1 4QC       0.036200
     43 H121         0.1870     1.9280    -1.8480 h1         1 4QC       0.055200
     44 H122        -1.0620     2.6310    -0.8250 h1         1 4QC       0.055200
     45 H15         -1.7720     0.3270    -2.2810 ha         1 4QC       0.119000
     46 H16         -4.0230    -0.6260    -2.3200 ha         1 4QC       0.117000
     47 H19         -1.7260     0.0480     1.9940 ha         1 4QC       0.119000
     48 H201        -5.1810     3.4110     0.1540 h1         1 4QC       0.030033
     49 H202        -4.8070     2.6320    -1.3830 h1         1 4QC       0.030033
     50 H203        -6.3860     3.4030    -1.1420 h1         1 4QC       0.030033
     51 H21         -4.8110    -3.2650     0.6710 ha         1 4QC       0.118000
     52 H22         -7.0130    -4.3740     0.6740 ha         1 4QC       0.114000
     53 H241         1.1620     3.8340    -0.7860 hc         1 4QC       0.073200
     54 H242         0.5700     3.3860     0.8070 hc         1 4QC       0.073200
     55 H            4.8930    -4.6410     1.3030 ha         1 4QC       0.116000
     56 H4           2.7010    -1.2160     2.6020 ha         1 4QC       0.136000
     57 H6           4.7910    -1.1070    -1.1320 ha         1 4QC       0.154000
     58 H18         -3.9760    -0.9270     1.9480 ha         1 4QC       0.117000
     59 H231        -7.3180     0.7610     1.3540 h1         1 4QC       0.030033
     60 H232        -6.6100     2.3290     1.7260 h1         1 4QC       0.030033
     61 H233        -7.9620     2.2220     0.5880 h1         1 4QC       0.030033
     62 HN11         5.1310    -5.4730    -0.6610 hn         1 4QC       0.315500
     63 HN12         6.3510    -5.3750    -1.8610 hn         1 4QC       0.315500
     64 H28         -8.9940    -3.1740    -0.2160 ha         1 4QC       0.114000
     65 H29         -8.7500    -0.8730    -1.0600 ha         1 4QC       0.110000
@<TRIPOS>BOND
     1     1     2 1   
     2     1    27 ar  
     3     1    30 ar  
     4     2    36 2   
     5     2    37 1   
     6     3    27 ar  
     7     3    28 ar  
     8     3    40 1   
     9     4     5 1   
    10     4     7 1   
    11     4    25 2   
    12     5     6 2   
    13     5    18 1   
    14     6    10 1   
    15     6    24 1   
    16     7    20 1   
    17     7    21 1   
    18     7    22 1   
    19     8    33 1   
    20     8    34 1   
    21     8    41 1   
    22     8    42 1   
    23     9    18 1   
    24     9    26 1   
    25     9    43 1   
    26     9    44 1   
    27    10    23 2   
    28    10    26 1   
    29    11    12 ar  
    30    11    14 ar  
    31    11    26 1   
    32    12    13 ar  
    33    12    45 1   
    34    13    31 ar  
    35    13    46 1   
    36    14    32 ar  
    37    14    47 1   
    38    15    34 1   
    39    15    48 1   
    40    15    49 1   
    41    15    50 1   
    42    16    17 ar  
    43    16    19 ar  
    44    16    51 1   
    45    17    38 ar  
    46    17    52 1   
    47    18    53 1   
    48    18    54 1   
    49    19    31 1   
    50    19    33 ar  
    51    24    25 1   
    52    24    29 1   
    53    27    55 1   
    54    28    29 ar  
    55    28    56 1   
    56    29    30 ar  
    57    30    57 1   
    58    31    32 ar  
    59    32    58 1   
    60    33    39 ar  
    61    34    35 1   
    62    35    59 1   
    63    35    60 1   
    64    35    61 1   
    65    37    62 1   
    66    37    63 1   
    67    38    39 ar  
    68    38    64 1   
    69    39    65 1   
@<TRIPOS>SUBSTRUCTURE
     1 4QC         1 TEMP              0 ****  ****    0 ROOT
