@<TRIPOS>MOLECULE
4QD
   75    79     1     0     0
SMALL
bcc


@<TRIPOS>ATOM
      1 C1          -1.7750    -1.5510    -0.0920 c5         1 4QD       0.032100
      2 N2          -3.0430    -2.0560    -0.6200 n          1 4QD      -0.426000
      3 C3          -3.7670    -0.9930    -1.1700 c          1 4QD       0.849900
      4 N4          -3.1110     0.1930    -0.9660 ne         1 4QD      -0.735100
      5 C5          -2.0060    -0.0710    -0.3280 c2         1 4QD       0.677200
      6 C6          -1.5690    -1.8310     1.4130 c6         1 4QD      -0.084400
      7 C7          -0.1050    -2.0910     1.7370 c6         1 4QD       0.155300
      8 N8           0.7470    -1.1770     0.9900 n3         1 4QD      -0.734600
      9 C9           0.7870    -1.5460    -0.4240 c6         1 4QD       0.155300
     10 C10         -0.5790    -2.0130    -0.9500 c6         1 4QD      -0.084400
     11 O11         -4.8300    -1.0910    -1.7480 o          1 4QD      -0.594500
     12 N12         -1.1380     0.8150     0.1020 nu         1 4QD      -0.808200
     13 C13         -3.4490    -3.3920    -0.5650 ca         1 4QD       0.136600
     14 C14         -1.2960     2.2550     0.0020 c6         1 4QD       0.231500
     15 C15         -1.1560     2.8790     1.3900 c6         1 4QD      -0.090400
     16 C16         -1.2650     4.3990     1.3260 c6         1 4QD      -0.068400
     17 C17         -0.2380     4.9790     0.3610 c6         1 4QD      -0.084400
     18 C18         -0.3920     4.3690    -1.0280 c6         1 4QD      -0.068400
     19 C19         -0.2880     2.8480    -0.9810 c6         1 4QD      -0.090400
     20 C20         -2.5890    -4.3890    -0.0770 ca         1 4QD      -0.223000
     21 C21         -2.9970    -5.7110    -0.0030 ca         1 4QD      -0.080000
     22 C22         -4.2620    -6.1070    -0.4040 ca         1 4QD      -0.206000
     23 C23         -5.0950    -5.1140    -0.8760 ca         1 4QD       0.164900
     24 C24         -4.7330    -3.7870    -0.9660 ca         1 4QD      -0.208000
     25 F25         -6.3360    -5.4480    -1.2720 f          1 4QD      -0.143900
     26 C26          2.0840    -1.1270     1.5700 c3         1 4QD       0.208100
     27 C27          3.0110    -0.1910     0.8440 ca         1 4QD      -0.059300
     28 C28          4.1380    -0.6840     0.1920 ca         1 4QD      -0.166000
     29 C29          4.9920     0.1920    -0.4600 ca         1 4QD      -0.088000
     30 C30          4.7390     1.5560    -0.4860 ca         1 4QD      -0.217000
     31 C31          3.6070     2.0580     0.1590 ca         1 4QD       0.156100
     32 C32          2.7570     1.1730     0.8250 ca         1 4QD      -0.156000
     33 O33          3.2600     3.3550     0.2070 os         1 4QD      -0.308900
     34 C34          4.0240     4.3380    -0.4850 c3         1 4QD       0.157100
     35 C35          3.6590     5.6890     0.1060 c3         1 4QD       0.148800
     36 C36          3.7440     4.3080    -1.9790 c3         1 4QD      -0.128100
     37 N37          3.9600     5.7650     1.5230 n8         1 4QD      -0.873800
     38 H1          -1.9240    -0.9760     1.9930 hc         1 4QD       0.067700
     39 H2          -2.1720    -2.6770     1.7390 hc         1 4QD       0.067700
     40 H3           0.0530    -1.9330     2.8040 h1         1 4QD       0.045700
     41 H4           0.1660    -3.1400     1.5340 h1         1 4QD       0.045700
     42 H6           1.1410    -0.6860    -0.9950 h1         1 4QD       0.045700
     43 H7           1.5120    -2.3540    -0.5940 h1         1 4QD       0.045700
     44 H8          -0.5860    -3.0990    -1.0120 hc         1 4QD       0.067700
     45 H9          -0.7190    -1.6580    -1.9730 hc         1 4QD       0.067700
     46 H10         -0.3240     0.4360     0.5970 hn         1 4QD       0.481800
     47 H11         -2.3060     2.4450    -0.3680 h1         1 4QD       0.092700
     48 H12         -1.9140     2.4630     2.0570 hc         1 4QD       0.047950
     49 H13         -0.1800     2.6090     1.8120 hc         1 4QD       0.047950
     50 H14         -2.2720     4.6770     0.9990 hc         1 4QD       0.041450
     51 H15         -1.1340     4.8180     2.3250 hc         1 4QD       0.041450
     52 H16         -0.3330     6.0660     0.3120 hc         1 4QD       0.045700
     53 H17          0.7680     4.7650     0.7380 hc         1 4QD       0.045700
     54 H18         -1.3630     4.6580    -1.4450 hc         1 4QD       0.041450
     55 H19          0.3660     4.7670    -1.7070 hc         1 4QD       0.041450
     56 H20          0.7230     2.5670    -0.6720 hc         1 4QD       0.047950
     57 H21         -0.4510     2.4220    -1.9740 hc         1 4QD       0.047950
     58 H22         -1.5910    -4.1650     0.2590 ha         1 4QD       0.129000
     59 H23         -2.3020    -6.4480     0.3780 ha         1 4QD       0.128000
     60 H24         -4.5840    -7.1380    -0.3510 ha         1 4QD       0.150000
     61 H25         -5.4480    -3.0770    -1.3460 ha         1 4QD       0.189000
     62 H26          1.9800    -0.8060     2.6090 h1         1 4QD       0.045700
     63 H27          2.5340    -2.1310     1.5890 h1         1 4QD       0.045700
     64 H28          4.3440    -1.7470     0.1950 ha         1 4QD       0.131000
     65 H29          5.8720    -0.1880    -0.9630 ha         1 4QD       0.131000
     66 H30          5.4310     2.2020    -1.0100 ha         1 4QD       0.135000
     67 H31          1.8930     1.5690     1.3470 ha         1 4QD       0.147000
     68 H32          5.0930     4.1660    -0.3060 h1         1 4QD       0.042700
     69 H33          4.1700     6.4500    -0.4990 h1         1 4QD       0.040200
     70 H34          2.5880     5.8560    -0.0340 h1         1 4QD       0.040200
     71 H35          4.3590     5.0500    -2.4880 hc         1 4QD       0.048367
     72 H36          3.9640     3.3390    -2.4260 hc         1 4QD       0.048367
     73 H37          2.6970     4.5430    -2.1800 hc         1 4QD       0.048367
     74 H38          4.9630     5.8140     1.6540 hn         1 4QD       0.339300
     75 H39          3.5950     6.6330     1.8940 hn         1 4QD       0.339300
@<TRIPOS>BOND
     1     1     2 1   
     2     1     5 1   
     3     1     6 1   
     4     1    10 1   
     5     2     3 1   
     6     2    13 1   
     7     3     4 1   
     8     3    11 2   
     9     4     5 2   
    10     5    12 1   
    11     6     7 1   
    12     6    38 1   
    13     6    39 1   
    14     7     8 1   
    15     7    40 1   
    16     7    41 1   
    17     8     9 1   
    18     8    26 1   
    19     9    10 1   
    20     9    42 1   
    21     9    43 1   
    22    10    44 1   
    23    10    45 1   
    24    12    14 1   
    25    12    46 1   
    26    13    20 ar  
    27    13    24 ar  
    28    14    15 1   
    29    14    19 1   
    30    14    47 1   
    31    15    16 1   
    32    15    48 1   
    33    15    49 1   
    34    16    17 1   
    35    16    50 1   
    36    16    51 1   
    37    17    18 1   
    38    17    52 1   
    39    17    53 1   
    40    18    19 1   
    41    18    54 1   
    42    18    55 1   
    43    19    56 1   
    44    19    57 1   
    45    20    21 ar  
    46    20    58 1   
    47    21    22 ar  
    48    21    59 1   
    49    22    23 ar  
    50    22    60 1   
    51    23    24 ar  
    52    23    25 1   
    53    24    61 1   
    54    26    27 1   
    55    26    62 1   
    56    26    63 1   
    57    27    28 ar  
    58    27    32 ar  
    59    28    29 ar  
    60    28    64 1   
    61    29    30 ar  
    62    29    65 1   
    63    30    31 ar  
    64    30    66 1   
    65    31    32 ar  
    66    31    33 1   
    67    32    67 1   
    68    33    34 1   
    69    34    35 1   
    70    34    36 1   
    71    34    68 1   
    72    35    37 1   
    73    35    69 1   
    74    35    70 1   
    75    36    71 1   
    76    36    72 1   
    77    36    73 1   
    78    37    74 1   
    79    37    75 1   
@<TRIPOS>SUBSTRUCTURE
     1 4QD         1 TEMP              0 ****  ****    0 ROOT
