@<TRIPOS>MOLECULE
4QD
   75    79     1     0     0
SMALL
No Charge or Current Charge


@<TRIPOS>ATOM
      1 C1          -1.7290    -1.8610    -0.1520 c5         1 4QD       0.032100
      2 N2          -3.0110    -2.3750    -0.7280 n          1 4QD      -0.266400
      3 C3          -3.6480    -1.3460    -1.4550 c          1 4QD       0.707400
      4 N4          -3.0080    -0.1540    -1.1910 ne         1 4QD      -0.735100
      5 C5          -2.0010    -0.3790    -0.4370 c2         1 4QD       0.677200
      6 C6          -1.5480    -2.1830     1.3690 c6         1 4QD      -0.084400
      7 C7          -0.0830    -2.0440     1.8730 c6         1 4QD       0.155300
      8 N8           0.7340    -1.1570     1.0040 n3         1 4QD      -0.734600
      9 C9           0.8630    -1.7120    -0.3790 c6         1 4QD       0.155300
     10 C10         -0.4560    -2.3180    -0.9360 c6         1 4QD      -0.084400
     11 O11         -4.6170    -1.4720    -2.1840 o          1 4QD      -0.519000
     12 N12         -1.2470     0.6160     0.1270 nu         1 4QD      -0.863400
     13 C13         -3.6100    -3.6690    -0.4360 ca         1 4QD       0.044000
     14 C14         -1.3420     2.0450    -0.1630 c6         1 4QD       0.231500
     15 C15         -1.1490     2.8430     1.1510 c6         1 4QD      -0.090400
     16 C16         -1.1680     4.3690     0.8850 c6         1 4QD      -0.068400
     17 C17         -0.1030     4.7620    -0.1680 c6         1 4QD      -0.084400
     18 C18         -0.2830     3.9590    -1.4810 c6         1 4QD      -0.068400
     19 C19         -0.2690     2.4340    -1.2100 c6         1 4QD      -0.090400
     20 C20         -2.8330    -4.8510    -0.3850 ca         1 4QD      -0.205000
     21 C21         -3.4280    -6.1170    -0.2480 ca         1 4QD      -0.062000
     22 C22         -4.8230    -6.2350    -0.2060 ca         1 4QD      -0.188000
     23 C23         -5.6110    -5.0850    -0.3160 ca         1 4QD       0.200000
     24 C24         -5.0160    -3.8230    -0.4520 ca         1 4QD      -0.190000
     25 F25         -6.9580    -5.1920    -0.2970 f          1 4QD      -0.179000
     26 C26          2.0480    -0.8340     1.6180 c3         1 4QD       0.208100
     27 C27          2.9060     0.1360     0.8070 ca         1 4QD      -0.059300
     28 C28          3.8390    -0.3520    -0.1290 ca         1 4QD      -0.148000
     29 C29          4.6510     0.5350    -0.8530 ca         1 4QD      -0.070000
     30 C30          4.5450     1.9190    -0.6420 ca         1 4QD      -0.199000
     31 C31          3.6140     2.4230     0.2940 ca         1 4QD       0.156100
     32 C32          2.8040     1.5260     1.0130 ca         1 4QD      -0.138000
     33 O33          3.4790     3.7710     0.5690 os         1 4QD      -0.332100
     34 C34          4.2100     4.8080    -0.1250 c3         1 4QD       0.180300
     35 C35          4.1380     6.1090     0.7310 c3         1 4QD       0.148800
     36 C36          3.5710     5.0090    -1.5200 c3         1 4QD      -0.128100
     37 N37          4.8310     6.0210     2.0470 n8         1 4QD      -0.984200
     38 H1          -2.2010    -1.5240     1.9560 hc         1 4QD       0.067700
     39 H2          -1.8830    -3.2030     1.5950 hc         1 4QD       0.067700
     40 H3          -0.1030    -1.6690     2.9070 h1         1 4QD       0.045700
     41 H4           0.3750    -3.0440     1.9090 h1         1 4QD       0.045700
     42 H6           1.1910    -0.9140    -1.0610 h1         1 4QD       0.045700
     43 H7           1.6400    -2.4900    -0.4100 h1         1 4QD       0.045700
     44 H8          -0.3430    -3.4030    -0.9040 hc         1 4QD       0.067700
     45 H9          -0.5530    -2.0650    -2.0000 hc         1 4QD       0.067700
     46 H10         -0.3940     0.2460     0.5680 hn         1 4QD       0.537000
     47 H11         -2.3360     2.2980    -0.5650 h1         1 4QD       0.092700
     48 H12         -1.9430     2.5830     1.8640 hc         1 4QD       0.047950
     49 H13         -0.1990     2.5650     1.6260 hc         1 4QD       0.047950
     50 H14         -2.1640     4.6720     0.5350 hc         1 4QD       0.041450
     51 H15         -0.9850     4.9130     1.8210 hc         1 4QD       0.041450
     52 H16         -0.1630     5.8390    -0.3770 hc         1 4QD       0.045700
     53 H17          0.8990     4.5810     0.2440 hc         1 4QD       0.045700
     54 H18         -1.2310     4.2400    -1.9590 hc         1 4QD       0.041450
     55 H19          0.5120     4.2180    -2.1920 hc         1 4QD       0.041450
     56 H20          0.7280     2.1320    -0.8600 hc         1 4QD       0.047950
     57 H21         -0.4490     1.8910    -2.1480 hc         1 4QD       0.047950
     58 H22         -1.7550    -4.8140    -0.4320 ha         1 4QD       0.111000
     59 H23         -2.8050    -7.0070    -0.1860 ha         1 4QD       0.110000
     60 H24         -5.2910    -7.2100    -0.1030 ha         1 4QD       0.132000
     61 H25         -5.6720    -2.9620    -0.5280 ha         1 4QD       0.171000
     62 H26          1.8900    -0.3980     2.6130 h1         1 4QD       0.045700
     63 H27          2.6210    -1.7590     1.7720 h1         1 4QD       0.045700
     64 H28          3.9380    -1.4230    -0.2920 ha         1 4QD       0.113000
     65 H29          5.3690     0.1470    -1.5730 ha         1 4QD       0.113000
     66 H30          5.1960     2.5780    -1.2070 ha         1 4QD       0.117000
     67 H31          2.1010     1.9150     1.7430 ha         1 4QD       0.129000
     68 H32          5.2670     4.5350    -0.2400 h1         1 4QD       0.042700
     69 H33          4.5940     6.9320     0.1610 h1         1 4QD       0.040200
     70 H34          3.0850     6.3680     0.9060 h1         1 4QD       0.040200
     71 H35          4.1540     5.7320    -2.1010 hc         1 4QD       0.048367
     72 H36          3.5340     4.0730    -2.0880 hc         1 4QD       0.048367
     73 H37          2.5500     5.3960    -1.4270 hc         1 4QD       0.048367
     74 H38          5.8340     5.8610     1.8920 hn         1 4QD       0.394500
     75 H39          4.8010     6.9390     2.5060 hn         1 4QD       0.394500
@<TRIPOS>BOND
     1     1     2 1   
     2     1     5 1   
     3     1     6 1   
     4     1    10 1   
     5     2     3 1   
     6     2    13 1   
     7     3     4 1   
     8     3    11 2   
     9     4     5 2   
    10     5    12 1   
    11     6     7 1   
    12     6    38 1   
    13     6    39 1   
    14     7     8 1   
    15     7    40 1   
    16     7    41 1   
    17     8     9 1   
    18     8    26 1   
    19     9    10 1   
    20     9    42 1   
    21     9    43 1   
    22    10    44 1   
    23    10    45 1   
    24    12    14 1   
    25    12    46 1   
    26    13    20 ar  
    27    13    24 ar  
    28    14    15 1   
    29    14    19 1   
    30    14    47 1   
    31    15    16 1   
    32    15    48 1   
    33    15    49 1   
    34    16    17 1   
    35    16    50 1   
    36    16    51 1   
    37    17    18 1   
    38    17    52 1   
    39    17    53 1   
    40    18    19 1   
    41    18    54 1   
    42    18    55 1   
    43    19    56 1   
    44    19    57 1   
    45    20    21 ar  
    46    20    58 1   
    47    21    22 ar  
    48    21    59 1   
    49    22    23 ar  
    50    22    60 1   
    51    23    24 ar  
    52    23    25 1   
    53    24    61 1   
    54    26    27 1   
    55    26    62 1   
    56    26    63 1   
    57    27    28 ar  
    58    27    32 ar  
    59    28    29 ar  
    60    28    64 1   
    61    29    30 ar  
    62    29    65 1   
    63    30    31 ar  
    64    30    66 1   
    65    31    32 ar  
    66    31    33 1   
    67    32    67 1   
    68    33    34 1   
    69    34    35 1   
    70    34    36 1   
    71    34    68 1   
    72    35    37 1   
    73    35    69 1   
    74    35    70 1   
    75    36    71 1   
    76    36    72 1   
    77    36    73 1   
    78    37    74 1   
    79    37    75 1   
@<TRIPOS>SUBSTRUCTURE
     1 4QD         1 TEMP              0 ****  ****    0 ROOT
