@<TRIPOS>MOLECULE
4QE
   48    51     1     0     0
SMALL
No Charge or Current Charge


@<TRIPOS>ATOM
      1 CAU         -3.6710    -1.5170     1.0140 c6         1 4QE      -0.070900
      2 CAV         -4.4500    -2.8560     0.9830 c6         1 4QE      -0.072900
      3 CAW         -5.9660    -2.6200     0.7760 c6         1 4QE      -0.075400
      4 CAX         -6.2300    -1.7890    -0.5030 c6         1 4QE      -0.072900
      5 CAY         -5.4530    -0.4490    -0.4710 c6         1 4QE      -0.070900
      6 CAT         -3.9280    -0.6760    -0.2710 c6         1 4QE      -0.067700
      7 CAS         -3.1610     0.6770    -0.2520 c3         1 4QE       0.170600
      8 O6          -1.7450     0.4190    -0.2080 os         1 4QE      -0.433300
      9 C6          -0.8330     1.4550    -0.1760 ca         1 4QE       0.460300
     10 N1          -1.2440     2.7440    -0.2000 nb         1 4QE      -0.362000
     11 C2          -0.2780     3.6700    -0.1680 ca         1 4QE       0.428900
     12 N2          -0.7000     4.9510    -0.1900 nv         1 4QE      -1.052900
     13 N3           1.0490     3.4790    -0.1120 nb         1 4QE      -0.281000
     14 C4           1.4410     2.1950    -0.0890 ca         1 4QE       0.158500
     15 N4           2.6890     1.6490    -0.0320 na         1 4QE      -0.414300
     16 C5           0.5500     1.1550    -0.1200 ca         1 4QE      -0.098600
     17 N7           1.1890    -0.0790    -0.0850 nc         1 4QE      -0.508100
     18 C8           2.4900     0.2620    -0.0500 cd         1 4QE       0.442400
     19 CAJ          3.5960    -0.7250     0.0430 ca         1 4QE      -0.109900
     20 CAK          4.7520    -0.3580     0.7720 ca         1 4QE      -0.102000
     21 CAL          5.8180    -1.2530     0.9450 ca         1 4QE      -0.118000
     22 CAM          5.7470    -2.5390     0.3980 ca         1 4QE      -0.094000
     23 CAN          4.6090    -2.9270    -0.3230 ca         1 4QE      -0.120000
     24 CAO          3.5280    -2.0400    -0.5080 ca         1 4QE      -0.023300
     25 CAP          2.3460    -2.5300    -1.3440 c3         1 4QE      -0.050800
     26 H1          -3.9670    -0.9410     1.9020 hc         1 4QE       0.043700
     27 H2          -2.5980    -1.7270     1.1240 hc         1 4QE       0.043700
     28 H3          -4.0610    -3.4910     0.1750 hc         1 4QE       0.039450
     29 H4          -4.2840    -3.4060     1.9190 hc         1 4QE       0.039450
     30 H5          -6.4880    -3.5840     0.7090 hc         1 4QE       0.038200
     31 H6          -6.3820    -2.0990     1.6490 hc         1 4QE       0.038200
     32 H7          -5.9340    -2.3670    -1.3890 hc         1 4QE       0.039450
     33 H8          -7.3060    -1.5930    -0.6040 hc         1 4QE       0.039450
     34 H9          -5.6320     0.0990    -1.4070 hc         1 4QE       0.043700
     35 H10         -5.8460     0.1830     0.3380 hc         1 4QE       0.043700
     36 H11         -3.5460    -1.2330    -1.1380 hc         1 4QE       0.061700
     37 H12         -3.4180     1.2450    -1.1560 h1         1 4QE       0.051700
     38 H13         -3.4800     1.2590     0.6230 h1         1 4QE       0.051700
     39 H14         -1.6820     5.1330    -0.0010 hn         1 4QE       0.492000
     40 H15         -0.0410     5.6820     0.0640 hn         1 4QE       0.492000
     41 H16          3.5750     2.1330    -0.0040 hn         1 4QE       0.368000
     42 H18          4.8250     0.6270     1.2270 ha         1 4QE       0.108000
     43 H19          6.6970    -0.9500     1.5100 ha         1 4QE       0.116000
     44 H20          6.5730    -3.2360     0.5310 ha         1 4QE       0.115000
     45 H21          4.5700    -3.9290    -0.7450 ha         1 4QE       0.114000
     46 H22          1.4820    -2.7590    -0.7100 hc         1 4QE       0.052700
     47 H23          2.0430    -1.7810    -2.0850 hc         1 4QE       0.052700
     48 H24          2.5920    -3.4430    -1.8990 hc         1 4QE       0.052700
@<TRIPOS>BOND
     1     1     2 1   
     2     1     6 1   
     3     1    26 1   
     4     1    27 1   
     5     2     3 1   
     6     2    28 1   
     7     2    29 1   
     8     3     4 1   
     9     3    30 1   
    10     3    31 1   
    11     4     5 1   
    12     4    32 1   
    13     4    33 1   
    14     5     6 1   
    15     5    34 1   
    16     5    35 1   
    17     6     7 1   
    18     6    36 1   
    19     7     8 1   
    20     7    37 1   
    21     7    38 1   
    22     8     9 1   
    23     9    10 ar  
    24     9    16 ar  
    25    10    11 ar  
    26    11    12 1   
    27    11    13 ar  
    28    12    39 1   
    29    12    40 1   
    30    13    14 ar  
    31    14    15 1   
    32    14    16 ar  
    33    15    18 1   
    34    15    41 1   
    35    16    17 1   
    36    17    18 2   
    37    18    19 1   
    38    19    20 ar  
    39    19    24 ar  
    40    20    21 ar  
    41    20    42 1   
    42    21    22 ar  
    43    21    43 1   
    44    22    23 ar  
    45    22    44 1   
    46    23    24 ar  
    47    23    45 1   
    48    24    25 1   
    49    25    46 1   
    50    25    47 1   
    51    25    48 1   
@<TRIPOS>SUBSTRUCTURE
     1 4QE         1 TEMP              0 ****  ****    0 ROOT
