@<TRIPOS>MOLECULE
4QE
   48    51     1     0     0
SMALL
abcg2


@<TRIPOS>ATOM
      1 CAU         -3.7470    -1.6290     0.9690 c6         1 4QE      -0.070900
      2 CAV         -4.6000    -2.8790     0.7700 c6         1 4QE      -0.072900
      3 CAW         -6.0720    -2.5290     0.5800 c6         1 4QE      -0.075400
      4 CAX         -6.2580    -1.5360    -0.5620 c6         1 4QE      -0.072900
      5 CAY         -5.4040    -0.2890    -0.3590 c6         1 4QE      -0.070900
      6 CAT         -3.9250    -0.6400    -0.1830 c6         1 4QE      -0.067700
      7 CAS         -3.1340     0.6400     0.0000 c3         1 4QE       0.170600
      8 O6          -1.7410     0.3130     0.0370 os         1 4QE      -0.433300
      9 C6          -0.8550     1.2850    -0.0330 ca         1 4QE       0.460300
     10 N1          -1.2320     2.5410    -0.1110 nb         1 4QE      -0.362000
     11 C2          -0.2950     3.5070    -0.2050 ca         1 4QE       0.428900
     12 N2          -0.7620     4.7680    -0.3350 nv         1 4QE      -1.052900
     13 N3           1.0240     3.3330    -0.2180 nb         1 4QE      -0.281000
     14 C4           1.3670     2.0550    -0.1270 ca         1 4QE       0.158500
     15 N4           2.6110     1.5160    -0.1120 na         1 4QE      -0.414300
     16 C5           0.5090     0.9630    -0.0310 ca         1 4QE      -0.098600
     17 N7           1.2140    -0.2080     0.0400 nc         1 4QE      -0.508100
     18 C8           2.4670     0.1490    -0.0110 cd         1 4QE       0.442400
     19 CAJ          3.6330    -0.7330     0.0730 ca         1 4QE      -0.109900
     20 CAK          4.8000    -0.2340     0.6590 ca         1 4QE      -0.102000
     21 CAL          5.9370    -1.0140     0.7740 ca         1 4QE      -0.118000
     22 CAM          5.9180    -2.3170     0.3000 ca         1 4QE      -0.094000
     23 CAN          4.7630    -2.8180    -0.2820 ca         1 4QE      -0.120000
     24 CAO          3.6060    -2.0530    -0.4100 ca         1 4QE      -0.023300
     25 CAP          2.4030    -2.6630    -1.0690 c3         1 4QE      -0.050800
     26 H1          -4.0360    -1.1410     1.9070 hc         1 4QE       0.043700
     27 H2          -2.6960    -1.9100     1.0740 hc         1 4QE       0.043700
     28 H3          -4.2410    -3.4260    -0.1090 hc         1 4QE       0.039450
     29 H4          -4.4780    -3.5520     1.6220 hc         1 4QE       0.039450
     30 H5          -6.6570    -3.4330     0.3960 hc         1 4QE       0.038200
     31 H6          -6.4600    -2.0900     1.5060 hc         1 4QE       0.038200
     32 H7          -5.9790    -2.0130    -1.5080 hc         1 4QE       0.039450
     33 H8          -7.3090    -1.2540    -0.6550 hc         1 4QE       0.039450
     34 H9          -5.5270     0.3920    -1.2060 hc         1 4QE       0.043700
     35 H10         -5.7560     0.2500     0.5280 hc         1 4QE       0.043700
     36 H11         -3.5840    -1.1190    -1.1100 hc         1 4QE       0.061700
     37 H12         -3.3300     1.3300    -0.8240 h1         1 4QE       0.051700
     38 H13         -3.4190     1.1410     0.9310 h1         1 4QE       0.051700
     39 H14         -1.7270     4.9420    -0.1110 hn         1 4QE       0.492000
     40 H15         -0.1230     5.5300    -0.1850 hn         1 4QE       0.492000
     41 H16          3.4730     2.0250    -0.2260 hn         1 4QE       0.368000
     42 H18          4.8190     0.7740     1.0540 ha         1 4QE       0.108000
     43 H19          6.8270    -0.6070     1.2350 ha         1 4QE       0.116000
     44 H20          6.7970    -2.9430     0.3790 ha         1 4QE       0.115000
     45 H21          4.7580    -3.8340    -0.6580 ha         1 4QE       0.114000
     46 H22          1.5860    -2.8060    -0.3630 hc         1 4QE       0.052700
     47 H23          2.0140    -2.0310    -1.8680 hc         1 4QE       0.052700
     48 H24          2.6580    -3.6320    -1.4970 hc         1 4QE       0.052700
@<TRIPOS>BOND
     1     1     2 1   
     2     1     6 1   
     3     1    26 1   
     4     1    27 1   
     5     2     3 1   
     6     2    28 1   
     7     2    29 1   
     8     3     4 1   
     9     3    30 1   
    10     3    31 1   
    11     4     5 1   
    12     4    32 1   
    13     4    33 1   
    14     5     6 1   
    15     5    34 1   
    16     5    35 1   
    17     6     7 1   
    18     6    36 1   
    19     7     8 1   
    20     7    37 1   
    21     7    38 1   
    22     8     9 1   
    23     9    10 ar  
    24     9    16 ar  
    25    10    11 ar  
    26    11    12 1   
    27    11    13 ar  
    28    12    39 1   
    29    12    40 1   
    30    13    14 ar  
    31    14    15 1   
    32    14    16 ar  
    33    15    18 1   
    34    15    41 1   
    35    16    17 1   
    36    17    18 2   
    37    18    19 1   
    38    19    20 ar  
    39    19    24 ar  
    40    20    21 ar  
    41    20    42 1   
    42    21    22 ar  
    43    21    43 1   
    44    22    23 ar  
    45    22    44 1   
    46    23    24 ar  
    47    23    45 1   
    48    24    25 1   
    49    25    46 1   
    50    25    47 1   
    51    25    48 1   
@<TRIPOS>SUBSTRUCTURE
     1 4QE         1 TEMP              0 ****  ****    0 ROOT
