@<TRIPOS>MOLECULE
4QF
   66    70     1     0     0
SMALL
bcc


@<TRIPOS>ATOM
      1 C1          -0.1470     0.5200     1.0400 c6         1 4QF      -0.072400
      2 C2          -1.6080     0.6750     0.6580 c6         1 4QF       0.160800
      3 C4          -1.2150     0.0350    -1.6220 c6         1 4QF       0.183500
      4 C5           0.2800    -0.1250    -1.3360 c6         1 4QF      -0.075400
      5 C6           0.6250    -0.4380     0.1250 c5         1 4QF       0.042100
      6 C7           2.1220    -0.3190     0.3700 c2         1 4QF       0.662200
      7 C9           1.7080    -2.3850     0.8180 c          1 4QF       0.840900
      8 C12         -0.6520    -2.6610     0.3380 ca         1 4QF       0.104600
      9 C13         -1.5800    -2.7480     1.3690 ca         1 4QF      -0.138000
     10 C14         -2.6970    -3.5590     1.2270 ca         1 4QF      -0.101000
     11 C15         -2.8920    -4.3010     0.0710 ca         1 4QF      -0.169000
     12 C16         -1.9440    -4.2120    -0.9300 ca         1 4QF       0.138900
     13 C17         -0.8260    -3.4110    -0.8210 ca         1 4QF      -0.169000
     14 C20          4.1890     0.9970     0.3860 c6         1 4QF       0.232500
     15 C21          4.4910     2.4500     0.7340 c6         1 4QF      -0.090400
     16 C22          5.9890     2.6650     0.9250 c6         1 4QF      -0.071400
     17 N3          -1.7670     1.0570    -0.7350 n3         1 4QF      -0.722600
     18 N8           2.6930    -1.4190     0.7620 ne         1 4QF      -0.712100
     19 N10          0.4910    -1.8460     0.4740 n          1 4QF      -0.458000
     20 O11          1.8810    -3.5500     1.1230 o          1 4QF      -0.593500
     21 F18         -2.1140    -4.9300    -2.0510 f          1 4QF      -0.142900
     22 N19          2.7550     0.8280     0.2060 nu         1 4QF      -0.815200
     23 C23          6.7790     2.2160    -0.3000 c6         1 4QF      -0.078400
     24 C24          6.4640     0.7660    -0.6530 c6         1 4QF      -0.071400
     25 C25          4.9670     0.5550    -0.8520 c6         1 4QF      -0.090400
     26 C26         -3.1580     1.3700    -1.0060 c3         1 4QF       0.212100
     27 C27         -3.6190     2.6000    -0.2670 ca         1 4QF      -0.090300
     28 C28         -4.8000     2.5970     0.4670 ca         1 4QF      -0.117500
     29 C29         -5.2360     3.7450     1.1180 ca         1 4QF      -0.131500
     30 C30         -4.4890     4.9120     1.0450 ca         1 4QF      -0.126000
     31 C31         -3.3050     4.9240     0.3150 ca         1 4QF      -0.131500
     32 C32         -2.8750     3.7770    -0.3350 ca         1 4QF      -0.117500
     33 C33         -1.3710     0.3890    -3.0970 c3         1 4QF      -0.094100
     34 H1           0.3190     1.5070     0.9780 hc         1 4QF       0.058200
     35 H2          -0.0590     0.1960     2.0780 hc         1 4QF       0.058200
     36 H3          -2.1720    -0.2400     0.8900 h1         1 4QF       0.045200
     37 H4          -2.0300     1.4590     1.2880 h1         1 4QF       0.045200
     38 H5          -1.7180    -0.9310    -1.4520 h1         1 4QF       0.037700
     39 H6           0.6990    -0.8990    -1.9820 hc         1 4QF       0.056700
     40 H7           0.7650     0.8150    -1.6140 hc         1 4QF       0.056700
     41 H8          -1.4280    -2.1810     2.2770 ha         1 4QF       0.144000
     42 H9          -3.4210    -3.6210     2.0270 ha         1 4QF       0.137000
     43 H10         -3.7590    -4.9380    -0.0480 ha         1 4QF       0.150000
     44 H11         -0.1030    -3.3640    -1.6260 ha         1 4QF       0.156000
     45 H12          4.4830     0.3650     1.2290 h1         1 4QF       0.088700
     46 H14          3.9440     2.7370     1.6350 hc         1 4QF       0.047450
     47 H15          6.1830     3.7170     1.1410 hc         1 4QF       0.046200
     48 H16          6.3270     2.1010     1.8000 hc         1 4QF       0.046200
     49 H18          2.2410     1.6130    -0.1670 hn         1 4QF       0.442800
     50 H19          6.5290     2.8610    -1.1500 hc         1 4QF       0.041700
     51 H20          7.8500     2.3390    -0.1220 hc         1 4QF       0.041700
     52 H21          7.0040     0.4650    -1.5540 hc         1 4QF       0.046200
     53 H22          6.8160     0.1140     0.1530 hc         1 4QF       0.046200
     54 H23          4.7540    -0.4950    -1.0660 hc         1 4QF       0.047450
     55 H24          4.6200     1.1350    -1.7140 hc         1 4QF       0.047450
     56 H25         -3.2790     1.5600    -2.0730 h1         1 4QF       0.042200
     57 H26         -3.8280     0.5260    -0.7680 h1         1 4QF       0.042200
     58 H27         -5.3840     1.6860     0.5330 ha         1 4QF       0.133500
     59 H28         -6.1570     3.7240     1.6880 ha         1 4QF       0.130500
     60 H29         -4.8230     5.8070     1.5550 ha         1 4QF       0.131000
     61 H30         -2.7170     5.8310     0.2520 ha         1 4QF       0.130500
     62 H31         -1.9480     3.7860    -0.8950 ha         1 4QF       0.133500
     63 H32         -1.0230     1.4050    -3.2880 hc         1 4QF       0.042033
     64 H33         -0.7720    -0.2920    -3.7020 hc         1 4QF       0.042033
     65 H34         -2.3980     0.3040    -3.4470 hc         1 4QF       0.042033
     66 H13          4.1330     3.0950    -0.0770 hc         1 4QF       0.047450
@<TRIPOS>BOND
     1     1     2 1   
     2     1     5 1   
     3     1    34 1   
     4     1    35 1   
     5     2    17 1   
     6     2    36 1   
     7     2    37 1   
     8     3     4 1   
     9     3    17 1   
    10     3    33 1   
    11     3    38 1   
    12     4     5 1   
    13     4    39 1   
    14     4    40 1   
    15     5     6 1   
    16     5    19 1   
    17     6    18 2   
    18     6    22 1   
    19     7    18 1   
    20     7    19 1   
    21     7    20 2   
    22     8     9 ar  
    23     8    13 ar  
    24     8    19 1   
    25     9    10 ar  
    26     9    41 1   
    27    10    11 ar  
    28    10    42 1   
    29    11    12 ar  
    30    11    43 1   
    31    12    13 ar  
    32    12    21 1   
    33    13    44 1   
    34    14    15 1   
    35    14    22 1   
    36    14    25 1   
    37    14    45 1   
    38    15    16 1   
    39    15    46 1   
    40    15    66 1   
    41    16    23 1   
    42    16    47 1   
    43    16    48 1   
    44    17    26 1   
    45    22    49 1   
    46    23    24 1   
    47    23    50 1   
    48    23    51 1   
    49    24    25 1   
    50    24    52 1   
    51    24    53 1   
    52    25    54 1   
    53    25    55 1   
    54    26    27 1   
    55    26    56 1   
    56    26    57 1   
    57    27    28 ar  
    58    27    32 ar  
    59    28    29 ar  
    60    28    58 1   
    61    29    30 ar  
    62    29    59 1   
    63    30    31 ar  
    64    30    60 1   
    65    31    32 ar  
    66    31    61 1   
    67    32    62 1   
    68    33    63 1   
    69    33    64 1   
    70    33    65 1   
@<TRIPOS>SUBSTRUCTURE
     1 4QF         1 TEMP              0 ****  ****    0 ROOT
