@<TRIPOS>MOLECULE
4QF
   66    70     1     0     0
SMALL
No Charge or Current Charge


@<TRIPOS>ATOM
      1 C1          -0.1110     0.6540     0.9710 c6         1 4QF      -0.072400
      2 C2          -1.5900     0.7940     0.5520 c6         1 4QF       0.160800
      3 C4          -1.1000     0.1390    -1.7690 c6         1 4QF       0.183500
      4 C5           0.4060    -0.0370    -1.4190 c6         1 4QF      -0.075400
      5 C6           0.6820    -0.3470     0.0830 c5         1 4QF       0.042100
      6 C7           2.1820    -0.3140     0.3990 c2         1 4QF       0.662200
      7 C9           1.6640    -2.3600     0.8970 c          1 4QF       0.698400
      8 C12         -0.7670    -2.4750     0.3720 ca         1 4QF       0.012000
      9 C13         -1.5850    -2.5940     1.5110 ca         1 4QF      -0.120000
     10 C14         -2.7630    -3.3600     1.4630 ca         1 4QF      -0.083000
     11 C15         -3.1040    -4.0440     0.2830 ca         1 4QF      -0.151000
     12 C16         -2.2570    -3.9740    -0.8330 ca         1 4QF       0.174000
     13 C17         -1.0810    -3.2100    -0.7860 ca         1 4QF      -0.151000
     14 C20          4.3890     0.9280     0.4520 c6         1 4QF       0.232500
     15 C21          4.7580     2.3960     0.7820 c6         1 4QF      -0.090400
     16 C22          6.2900     2.5670     0.9400 c6         1 4QF      -0.071400
     17 N3          -1.7390     1.1670    -0.8850 n3         1 4QF      -0.722600
     18 N8           2.6650    -1.4140     0.8420 ne         1 4QF      -0.712100
     19 N10          0.4730    -1.7720     0.4540 n          1 4QF      -0.298400
     20 O11          1.7840    -3.5160     1.2650 o          1 4QF      -0.518000
     21 F18         -2.5700    -4.6540    -1.9570 f          1 4QF      -0.178000
     22 N19          2.9400     0.8300     0.2430 nu         1 4QF      -0.870400
     23 C23          7.0400     2.0800    -0.3250 c6         1 4QF      -0.078400
     24 C24          6.6680     0.6160    -0.6690 c6         1 4QF      -0.071400
     25 C25          5.1350     0.4490    -0.8200 c6         1 4QF      -0.090400
     26 C26         -3.1630     1.4450    -1.2270 c3         1 4QF       0.212100
     27 C27         -3.8060     2.5330    -0.3700 ca         1 4QF      -0.090300
     28 C28         -4.8550     2.2190     0.5180 ca         1 4QF      -0.099500
     29 C29         -5.4420     3.2240     1.3060 ca         1 4QF      -0.113500
     30 C30         -4.9850     4.5500     1.2110 ca         1 4QF      -0.108000
     31 C31         -3.9400     4.8690     0.3280 ca         1 4QF      -0.113500
     32 C32         -3.3530     3.8640    -0.4600 ca         1 4QF      -0.099500
     33 C33         -1.2220     0.4620    -3.2870 c3         1 4QF      -0.094100
     34 H1           0.3510     1.6490     0.9110 hc         1 4QF       0.058200
     35 H2          -0.0500     0.3540     2.0250 hc         1 4QF       0.058200
     36 H3          -2.1260    -0.1430     0.7560 h1         1 4QF       0.045200
     37 H4          -2.0420     1.5570     1.2010 h1         1 4QF       0.045200
     38 H5          -1.6070    -0.8230    -1.6170 h1         1 4QF       0.037700
     39 H6           0.8460    -0.8300    -2.0390 hc         1 4QF       0.056700
     40 H7           0.9300     0.8870    -1.6980 hc         1 4QF       0.056700
     41 H8          -1.3120    -2.0810     2.4300 ha         1 4QF       0.126000
     42 H9          -3.4030    -3.4300     2.3400 ha         1 4QF       0.119000
     43 H10         -4.0120    -4.6410     0.2390 ha         1 4QF       0.132000
     44 H11         -0.4240    -3.1790    -1.6500 ha         1 4QF       0.138000
     45 H12          4.6980     0.3000     1.3040 h1         1 4QF       0.088700
     46 H14          4.2550     2.7090     1.7070 hc         1 4QF       0.047450
     47 H15          6.5300     3.6220     1.1330 hc         1 4QF       0.046200
     48 H16          6.6380     2.0030     1.8170 hc         1 4QF       0.046200
     49 H18          2.4430     1.6430    -0.1120 hn         1 4QF       0.498000
     50 H19          6.7960     2.7330    -1.1740 hc         1 4QF       0.041700
     51 H20          8.1250     2.1620    -0.1700 hc         1 4QF       0.041700
     52 H21          7.1700     0.3120    -1.5980 hc         1 4QF       0.046200
     53 H22          7.0370    -0.0550     0.1190 hc         1 4QF       0.046200
     54 H23          4.8980    -0.6050    -1.0200 hc         1 4QF       0.047450
     55 H24          4.7880     1.0180    -1.6940 hc         1 4QF       0.047450
     56 H25         -3.2490     1.7800    -2.2680 h1         1 4QF       0.042200
     57 H26         -3.7540     0.5220    -1.1410 h1         1 4QF       0.042200
     58 H27         -5.2140     1.1950     0.5990 ha         1 4QF       0.115500
     59 H28         -6.2510     2.9760     1.9900 ha         1 4QF       0.112500
     60 H29         -5.4400     5.3270     1.8220 ha         1 4QF       0.113000
     61 H30         -3.5840     5.8940     0.2550 ha         1 4QF       0.112500
     62 H31         -2.5400     4.1150    -1.1380 ha         1 4QF       0.115500
     63 H32         -0.8640     1.4740    -3.5100 hc         1 4QF       0.042033
     64 H33         -0.6310    -0.2400    -3.8880 hc         1 4QF       0.042033
     65 H34         -2.2560     0.3780    -3.6410 hc         1 4QF       0.042033
     66 H13          4.3980     3.0640    -0.0130 hc         1 4QF       0.047450
@<TRIPOS>BOND
     1     1     2 1   
     2     1     5 1   
     3     1    34 1   
     4     1    35 1   
     5     2    17 1   
     6     2    36 1   
     7     2    37 1   
     8     3     4 1   
     9     3    17 1   
    10     3    33 1   
    11     3    38 1   
    12     4     5 1   
    13     4    39 1   
    14     4    40 1   
    15     5     6 1   
    16     5    19 1   
    17     6    18 2   
    18     6    22 1   
    19     7    18 1   
    20     7    19 1   
    21     7    20 2   
    22     8     9 ar  
    23     8    13 ar  
    24     8    19 1   
    25     9    10 ar  
    26     9    41 1   
    27    10    11 ar  
    28    10    42 1   
    29    11    12 ar  
    30    11    43 1   
    31    12    13 ar  
    32    12    21 1   
    33    13    44 1   
    34    14    15 1   
    35    14    22 1   
    36    14    25 1   
    37    14    45 1   
    38    15    16 1   
    39    15    46 1   
    40    15    66 1   
    41    16    23 1   
    42    16    47 1   
    43    16    48 1   
    44    17    26 1   
    45    22    49 1   
    46    23    24 1   
    47    23    50 1   
    48    23    51 1   
    49    24    25 1   
    50    24    52 1   
    51    24    53 1   
    52    25    54 1   
    53    25    55 1   
    54    26    27 1   
    55    26    56 1   
    56    26    57 1   
    57    27    28 ar  
    58    27    32 ar  
    59    28    29 ar  
    60    28    58 1   
    61    29    30 ar  
    62    29    59 1   
    63    30    31 ar  
    64    30    60 1   
    65    31    32 ar  
    66    31    61 1   
    67    32    62 1   
    68    33    63 1   
    69    33    64 1   
    70    33    65 1   
@<TRIPOS>SUBSTRUCTURE
     1 4QF         1 TEMP              0 ****  ****    0 ROOT
