@<TRIPOS>MOLECULE
4QG
   32    34     1     0     0
SMALL
No Charge or Current Charge


@<TRIPOS>ATOM
      1 C7          -1.3070    -0.9620    -0.0110 cc         1 4QG       0.162500
      2 C6           3.2870    -1.4530    -0.0060 ca         1 4QG      -0.083000
      3 C9           3.7850     1.3040     0.0370 ca         1 4QG      -0.080500
      4 C13         -2.8910     0.9640     0.0140 ca         1 4QG      -0.079500
      5 C20         -5.3000     0.6240     0.0030 ca         1 4QG       0.127000
      6 C8          -0.9400    -2.2830    -0.0300 cd         1 4QG       0.246900
      7 C16         -4.1950     1.4880     0.0180 ca         1 4QG      -0.103500
      8 C1           0.8150    -1.0630    -0.0070 cc         1 4QG       0.500500
      9 C2           2.1960    -0.5580     0.0050 ca         1 4QG      -0.114500
     10 O3          -0.2130    -0.1640     0.0040 os         1 4QG      -0.250000
     11 N4           0.4420    -2.3400    -0.0270 nd         1 4QG      -0.670000
     12 C5           2.4630     0.8280     0.0270 ca         1 4QG      -0.083000
     13 C10          4.6110    -0.9780     0.0050 ca         1 4QG      -0.080500
     14 C11         -2.6770    -0.4330    -0.0070 ca         1 4QG      -0.118500
     15 C12          4.8790     0.4110     0.0270 ca         1 4QG      -0.135600
     16 C14         -3.7990    -1.2930    -0.0220 ca         1 4QG      -0.079500
     17 C15          6.2930     0.9580     0.0390 c          1 4QG       0.615700
     18 C17         -5.1020    -0.7650    -0.0180 ca         1 4QG      -0.103500
     19 N18          7.3210     0.0820     0.0280 nt         1 4QG      -0.602000
     20 O19          6.5370     2.1540     0.0570 o          1 4QG      -0.600100
     21 H1           3.1140    -2.5270    -0.0230 ha         1 4QG       0.134500
     22 H2           3.9560     2.3790     0.0540 ha         1 4QG       0.128000
     23 H3          -2.0460     1.6500     0.0260 ha         1 4QG       0.125500
     24 H4          -1.5590    -3.1710    -0.0460 h4         1 4QG       0.051100
     25 H5          -4.3490     2.5640     0.0340 ha         1 4QG       0.133000
     26 H6           1.6470     1.5480     0.0350 ha         1 4QG       0.134500
     27 H7           5.4170    -1.7070    -0.0040 ha         1 4QG       0.128000
     28 H8          -3.6750    -2.3730    -0.0380 ha         1 4QG       0.125500
     29 H9          -5.9600    -1.4330    -0.0300 ha         1 4QG       0.133000
     30 H10          7.1460    -0.9100     0.0130 hn         1 4QG       0.315500
     31 H11          8.2660     0.4360     0.0360 hn         1 4QG       0.315500
     32 Cl21        -6.9310     1.2810     0.0080 cl         1 4QG      -0.194000
@<TRIPOS>BOND
     1     1     6 2   
     2     1    10 1   
     3     1    14 1   
     4     2     9 ar  
     5     2    13 ar  
     6     2    21 1   
     7     3    12 ar  
     8     3    15 ar  
     9     3    22 1   
    10     4     7 ar  
    11     4    14 ar  
    12     4    23 1   
    13     5     7 ar  
    14     5    18 ar  
    15     5    32 1   
    16     6    11 1   
    17     6    24 1   
    18     7    25 1   
    19     8     9 1   
    20     8    10 1   
    21     8    11 2   
    22     9    12 ar  
    23    12    26 1   
    24    13    15 ar  
    25    13    27 1   
    26    14    16 ar  
    27    15    17 1   
    28    16    18 ar  
    29    16    28 1   
    30    17    19 1   
    31    17    20 2   
    32    18    29 1   
    33    19    30 1   
    34    19    31 1   
@<TRIPOS>SUBSTRUCTURE
     1 4QG         1 TEMP              0 ****  ****    0 ROOT
