@<TRIPOS>MOLECULE
4QG
   32    34     1     0     0
SMALL
abcg2


@<TRIPOS>ATOM
      1 C7          -1.3230    -1.0910     0.0360 cc         1 4QG       0.162500
      2 C6           3.2620    -1.4740     0.0970 ca         1 4QG      -0.083000
      3 C9           3.6990     1.2620     0.1260 ca         1 4QG      -0.080500
      4 C13         -2.7660     0.9290    -0.0440 ca         1 4QG      -0.079500
      5 C20         -5.1480     0.7050    -0.0970 ca         1 4QG       0.127000
      6 C8          -0.8900    -2.3790     0.0780 cd         1 4QG       0.246900
      7 C16         -4.0210     1.5120    -0.0880 ca         1 4QG      -0.103500
      8 C1           0.8290    -1.1490     0.0800 cc         1 4QG       0.500500
      9 C2           2.1740    -0.6010     0.0920 ca         1 4QG      -0.114500
     10 O3          -0.2150    -0.3110     0.0380 os         1 4QG      -0.250000
     11 N4           0.4770    -2.3930     0.1050 nd         1 4QG      -0.670000
     12 C5           2.4040     0.7760     0.1040 ca         1 4QG      -0.083000
     13 C10          4.5530    -0.9800     0.1040 ca         1 4QG      -0.080500
     14 C11         -2.6260    -0.4590    -0.0080 ca         1 4QG      -0.118500
     15 C12          4.7870     0.3950     0.1140 ca         1 4QG      -0.135600
     16 C14         -3.7770    -1.2510    -0.0180 ca         1 4QG      -0.079500
     17 C15          6.1630     0.9830     0.1530 c          1 4QG       0.615700
     18 C17         -5.0340    -0.6770    -0.0610 ca         1 4QG      -0.103500
     19 N18          7.1550     0.2060    -0.3040 nt         1 4QG      -0.602000
     20 O19          6.3470     2.1130     0.5850 o          1 4QG      -0.600100
     21 H1           3.0970    -2.5430     0.1000 ha         1 4QG       0.134500
     22 H2           3.8610     2.3310     0.1470 ha         1 4QG       0.128000
     23 H3          -1.8990     1.5750    -0.0380 ha         1 4QG       0.125500
     24 H4          -1.4730    -3.2860     0.0910 h4         1 4QG       0.051100
     25 H5          -4.1160     2.5890    -0.1160 ha         1 4QG       0.133000
     26 H6           1.5810     1.4760     0.0980 ha         1 4QG       0.134500
     27 H7           5.3710    -1.6870     0.1230 ha         1 4QG       0.128000
     28 H8          -3.7000    -2.3300     0.0070 ha         1 4QG       0.125500
     29 H9          -5.9140    -1.3040    -0.0690 ha         1 4QG       0.133000
     30 H10          6.9910    -0.6650    -0.7770 hn         1 4QG       0.315500
     31 H11          8.1000     0.5530    -0.3030 hn         1 4QG       0.315500
     32 CL21        -6.7180     1.4300    -0.1530 cl         1 4QG      -0.194000
@<TRIPOS>BOND
     1     1     6 2   
     2     1    10 1   
     3     1    14 1   
     4     2     9 ar  
     5     2    13 ar  
     6     2    21 1   
     7     3    12 ar  
     8     3    15 ar  
     9     3    22 1   
    10     4     7 ar  
    11     4    14 ar  
    12     4    23 1   
    13     5     7 ar  
    14     5    18 ar  
    15     5    32 1   
    16     6    11 1   
    17     6    24 1   
    18     7    25 1   
    19     8     9 1   
    20     8    10 1   
    21     8    11 2   
    22     9    12 ar  
    23    12    26 1   
    24    13    15 ar  
    25    13    27 1   
    26    14    16 ar  
    27    15    17 1   
    28    16    18 ar  
    29    16    28 1   
    30    17    19 1   
    31    17    20 2   
    32    18    29 1   
    33    19    30 1   
    34    19    31 1   
@<TRIPOS>SUBSTRUCTURE
     1 4QG         1 TEMP              0 ****  ****    0 ROOT
