@<TRIPOS>MOLECULE
4QH
   60    63     1     0     0
SMALL
bcc


@<TRIPOS>ATOM
      1 CAC         -2.3650     0.9530    -2.4320 c3         1 4QH       0.118700
      2 OAU         -2.1360    -0.4410    -2.4970 os         1 4QH      -0.301900
      3 CBA         -2.0740    -1.1260    -1.3450 ca         1 4QH       0.093100
      4 CAO         -2.3080    -0.5880    -0.0960 ca         1 4QH      -0.096000
      5 CAZ         -1.7480    -2.4970    -1.4650 ca         1 4QH       0.161100
      6 OAT         -1.5530    -2.9320    -2.7130 os         1 4QH      -0.292900
      7 CAB         -1.2100    -4.2920    -2.9070 c3         1 4QH       0.119700
      8 CAM         -1.6450    -3.2810    -0.3260 ca         1 4QH      -0.224000
      9 CAN         -1.8430    -2.7300     0.9360 ca         1 4QH      -0.012000
     10 CBC         -2.1760    -1.3960     1.0370 ca         1 4QH      -0.304500
     11 SBI         -2.3360    -0.6490     2.6240 sy         1 4QH       1.279200
     12 OAG         -3.3440     0.3930     2.5310 o          1 4QH      -0.605800
     13 OAH         -2.4430    -1.6800     3.6420 o          1 4QH      -0.605800
     14 NAR         -0.8810     0.1230     2.9280 nu         1 4QH      -0.643500
     15 CAY         -0.4150     1.0200     1.9350 ca         1 4QH       0.052600
     16 CAP         -0.9660     2.2990     1.8590 ca         1 4QH      -0.069000
     17 CBE         -0.5470     3.1190     0.8350 ca         1 4QH      -0.027400
     18 NBG         -0.9000     4.4040     0.4810 n          1 4QH      -0.354000
     19 CAD         -1.8520     5.2250     1.1820 c3         1 4QH       0.103300
     20 CBD         -0.1870     4.7940    -0.6260 c          1 4QH       0.804500
     21 OAF         -0.2480     5.8670    -1.1980 o          1 4QH      -0.633500
     22 NBH          0.6150     3.7240    -0.9650 n          1 4QH      -0.360000
     23 CAE          1.5440     3.7070    -2.0660 c3         1 4QH       0.102300
     24 CBF          0.4140     2.6910    -0.0830 ca         1 4QH       0.034600
     25 CAQ          0.9870     1.4360    -0.0130 ca         1 4QH      -0.195000
     26 CBB          0.5490     0.5980     1.0080 ca         1 4QH       0.119100
     27 OAV          0.9920    -0.6760     1.1640 os         1 4QH      -0.257200
     28 CAX          2.1220    -1.0880     0.4990 ca         1 4QH       0.051100
     29 CAK          3.3790    -0.6510     0.9010 ca         1 4QH      -0.096500
     30 CAI          4.5060    -1.1230     0.2580 ca         1 4QH      -0.181500
     31 CAW          4.3940    -2.0410    -0.7900 ca         1 4QH       0.145100
     32 OAS          5.5490    -2.4510    -1.3480 os         1 4QH      -0.313900
     33 CAA          5.4940    -3.4050    -2.3890 c3         1 4QH       0.123700
     34 CAJ          3.1320    -2.4740    -1.1860 ca         1 4QH      -0.181500
     35 CAL          1.9990    -1.9880    -0.5410 ca         1 4QH      -0.096500
     36 H1          -3.3460     1.1880    -2.0110 h1         1 4QH       0.044700
     37 H2          -1.5970     1.4610    -1.8410 h1         1 4QH       0.044700
     38 H3          -2.3240     1.3210    -3.4540 h1         1 4QH       0.044700
     39 H4          -2.5890     0.4500     0.0090 ha         1 4QH       0.159000
     40 H5          -1.9910    -4.9620    -2.5400 h1         1 4QH       0.044367
     41 H6          -1.1010    -4.4310    -3.9790 h1         1 4QH       0.044367
     42 H7          -0.2660    -4.5460    -2.4180 h1         1 4QH       0.044367
     43 H8          -1.3980    -4.3310    -0.3980 ha         1 4QH       0.141000
     44 H9          -1.7370    -3.3550     1.8110 ha         1 4QH       0.157000
     45 H10         -0.1860    -0.5450     3.2490 hn         1 4QH       0.438800
     46 H11         -1.6970     2.6150     2.5900 ha         1 4QH       0.176000
     47 H12         -1.4850     5.4860     2.1750 h1         1 4QH       0.055367
     48 H13         -2.0190     6.1390     0.6200 h1         1 4QH       0.055367
     49 H14         -2.8020     4.7020     1.2820 h1         1 4QH       0.055367
     50 H15          1.4860     4.6530    -2.5950 h1         1 4QH       0.053367
     51 H16          2.5630     3.5690    -1.7070 h1         1 4QH       0.053367
     52 H17          1.3020     2.9040    -2.7630 h1         1 4QH       0.053367
     53 H18          1.7240     1.1100    -0.7350 ha         1 4QH       0.160000
     54 H19          3.4790     0.0510     1.7190 ha         1 4QH       0.149500
     55 H20          5.4880    -0.7890     0.5700 ha         1 4QH       0.146000
     56 H21          5.0350    -4.3410    -2.0620 h1         1 4QH       0.043367
     57 H22          4.9450    -3.0310    -3.2580 h1         1 4QH       0.043367
     58 H23          6.5210    -3.6020    -2.6840 h1         1 4QH       0.043367
     59 H24          3.0040    -3.1850    -1.9900 ha         1 4QH       0.146000
     60 H25          1.0170    -2.3250    -0.8460 ha         1 4QH       0.149500
@<TRIPOS>BOND
     1     1     2 1   
     2     1    36 1   
     3     1    37 1   
     4     1    38 1   
     5     2     3 1   
     6     3     4 ar  
     7     3     5 ar  
     8     4    10 ar  
     9     4    39 1   
    10     5     6 1   
    11     5     8 ar  
    12     6     7 1   
    13     7    40 1   
    14     7    41 1   
    15     7    42 1   
    16     8     9 ar  
    17     8    43 1   
    18     9    10 ar  
    19     9    44 1   
    20    10    11 1   
    21    11    12 2   
    22    11    13 2   
    23    11    14 1   
    24    14    15 1   
    25    14    45 1   
    26    15    16 ar  
    27    15    26 ar  
    28    16    17 ar  
    29    16    46 1   
    30    17    18 1   
    31    17    24 ar  
    32    18    19 1   
    33    18    20 1   
    34    19    47 1   
    35    19    48 1   
    36    19    49 1   
    37    20    21 2   
    38    20    22 1   
    39    22    23 1   
    40    22    24 1   
    41    23    50 1   
    42    23    51 1   
    43    23    52 1   
    44    24    25 ar  
    45    25    26 ar  
    46    25    53 1   
    47    26    27 1   
    48    27    28 1   
    49    28    29 ar  
    50    28    35 ar  
    51    29    30 ar  
    52    29    54 1   
    53    30    31 ar  
    54    30    55 1   
    55    31    32 1   
    56    31    34 ar  
    57    32    33 1   
    58    33    56 1   
    59    33    57 1   
    60    33    58 1   
    61    34    35 ar  
    62    34    59 1   
    63    35    60 1   
@<TRIPOS>SUBSTRUCTURE
     1 4QH         1 TEMP              0 ****  ****    0 ROOT
