@<TRIPOS>MOLECULE
4QH
   60    63     1     0     0
SMALL
No Charge or Current Charge


@<TRIPOS>ATOM
      1 CAC         -2.2510     0.9520    -2.3790 c3         1 4QH       0.141900
      2 OAU         -1.8680    -0.4340    -2.4320 os         1 4QH      -0.325100
      3 CBA         -1.6590    -1.1920    -1.2890 ca         1 4QH       0.093100
      4 CAO         -1.9620    -0.6920    -0.0020 ca         1 4QH      -0.078000
      5 CAZ         -1.1070    -2.4890    -1.4200 ca         1 4QH       0.161100
      6 OAT         -0.8200    -2.9610    -2.6910 os         1 4QH      -0.316100
      7 CAB         -0.2970    -4.2800    -2.9220 c3         1 4QH       0.142900
      8 CAM         -0.8440    -3.2590    -0.2650 ca         1 4QH      -0.206000
      9 CAN         -1.1240    -2.7450     1.0120 ca         1 4QH       0.006000
     10 CBC         -1.6880    -1.4640     1.1470 ca         1 4QH      -0.304500
     11 SBI         -2.0070    -0.7790     2.7810 sy         1 4QH       1.137600
     12 OAG         -3.1950     0.0790     2.7490 o          1 4QH      -0.535000
     13 OAH         -1.7990    -1.7990     3.8100 o          1 4QH      -0.535000
     14 NAR         -0.7340     0.2860     3.0300 nu         1 4QH      -0.837100
     15 CAY         -0.2930     1.2550     2.1200 ca         1 4QH       0.191000
     16 CAP         -1.1600     2.2800     1.6810 ca         1 4QH      -0.051000
     17 CBE         -0.6800     3.2150     0.7540 ca         1 4QH      -0.027400
     18 NBG         -1.4110     4.1130    -0.0750 n          1 4QH      -0.287000
     19 CAD         -2.7120     4.7040     0.2810 c3         1 4QH       0.103300
     20 CBD         -0.5940     4.5940    -1.1090 c          1 4QH       0.595000
     21 OAF         -0.8760     5.4370    -1.9490 o          1 4QH      -0.558000
     22 NBH          0.6300     3.9330    -0.9450 n          1 4QH      -0.293000
     23 CAE          1.8570     4.2870    -1.6780 c3         1 4QH       0.102300
     24 CBF          0.5910     3.1000     0.2050 ca         1 4QH       0.034600
     25 CAQ          1.4430     2.0490     0.5580 ca         1 4QH      -0.177000
     26 CBB          1.0090     1.1440     1.5520 ca         1 4QH       0.119100
     27 OAV          1.8240     0.0940     1.9250 os         1 4QH      -0.257200
     28 CAX          2.4120    -0.7620     1.0170 ca         1 4QH       0.051100
     29 CAK          3.5600    -1.4700     1.4080 ca         1 4QH      -0.078500
     30 CAI          4.1810    -2.3570     0.5100 ca         1 4QH      -0.163500
     31 CAW          3.6600    -2.5460    -0.7800 ca         1 4QH       0.145100
     32 OAS          4.3200    -3.4200    -1.6200 os         1 4QH      -0.337100
     33 CAA          3.9050    -3.6400    -2.9800 c3         1 4QH       0.146900
     34 CAJ          2.4960    -1.8470    -1.1700 ca         1 4QH      -0.163500
     35 CAL          1.8740    -0.9610    -0.2720 ca         1 4QH      -0.078500
     36 H1          -3.2330     1.0700    -1.9020 h1         1 4QH       0.044700
     37 H2          -1.5130     1.5400    -1.8180 h1         1 4QH       0.044700
     38 H3          -2.3160     1.3670    -3.3920 h1         1 4QH       0.044700
     39 H4          -2.3950     0.2960     0.1190 ha         1 4QH       0.141000
     40 H5          -0.9950    -5.0450    -2.5590 h1         1 4QH       0.044367
     41 H6          -0.1390    -4.4440    -3.9950 h1         1 4QH       0.044367
     42 H7           0.6660    -4.4130    -2.4130 h1         1 4QH       0.044367
     43 H8          -0.4110    -4.2520    -0.3340 ha         1 4QH       0.123000
     44 H9          -0.8970    -3.3490     1.8910 ha         1 4QH       0.139000
     45 H10          0.0010    -0.3330     3.3460 hn         1 4QH       0.494000
     46 H11         -2.1830     2.3370     2.0390 ha         1 4QH       0.158000
     47 H12         -2.5850     5.3870     1.1300 h1         1 4QH       0.055367
     48 H13         -3.1230     5.2600    -0.5700 h1         1 4QH       0.055367
     49 H14         -3.4160     3.9100     0.5580 h1         1 4QH       0.055367
     50 H15          1.7980     5.3220    -2.0380 h1         1 4QH       0.053367
     51 H16          2.7280     4.1920    -1.0170 h1         1 4QH       0.053367
     52 H17          1.9790     3.6140    -2.5350 h1         1 4QH       0.053367
     53 H18          2.4010     1.9160     0.0620 ha         1 4QH       0.142000
     54 H19          3.9700    -1.3280     2.4050 ha         1 4QH       0.131500
     55 H20          5.0740    -2.8980     0.8140 ha         1 4QH       0.128000
     56 H21          2.8900    -4.0530    -3.0160 h1         1 4QH       0.043367
     57 H22          3.9260    -2.7030    -3.5510 h1         1 4QH       0.043367
     58 H23          4.5790    -4.3530    -3.4720 h1         1 4QH       0.043367
     59 H24          2.0620    -1.9770    -2.1570 ha         1 4QH       0.128000
     60 H25          0.9750    -0.4360    -0.5820 ha         1 4QH       0.131500
@<TRIPOS>BOND
     1     1     2 1   
     2     1    36 1   
     3     1    37 1   
     4     1    38 1   
     5     2     3 1   
     6     3     4 ar  
     7     3     5 ar  
     8     4    10 ar  
     9     4    39 1   
    10     5     6 1   
    11     5     8 ar  
    12     6     7 1   
    13     7    40 1   
    14     7    41 1   
    15     7    42 1   
    16     8     9 ar  
    17     8    43 1   
    18     9    10 ar  
    19     9    44 1   
    20    10    11 1   
    21    11    12 2   
    22    11    13 2   
    23    11    14 1   
    24    14    15 1   
    25    14    45 1   
    26    15    16 ar  
    27    15    26 ar  
    28    16    17 ar  
    29    16    46 1   
    30    17    18 1   
    31    17    24 ar  
    32    18    19 1   
    33    18    20 1   
    34    19    47 1   
    35    19    48 1   
    36    19    49 1   
    37    20    21 2   
    38    20    22 1   
    39    22    23 1   
    40    22    24 1   
    41    23    50 1   
    42    23    51 1   
    43    23    52 1   
    44    24    25 ar  
    45    25    26 ar  
    46    25    53 1   
    47    26    27 1   
    48    27    28 1   
    49    28    29 ar  
    50    28    35 ar  
    51    29    30 ar  
    52    29    54 1   
    53    30    31 ar  
    54    30    55 1   
    55    31    32 1   
    56    31    34 ar  
    57    32    33 1   
    58    33    56 1   
    59    33    57 1   
    60    33    58 1   
    61    34    35 ar  
    62    34    59 1   
    63    35    60 1   
@<TRIPOS>SUBSTRUCTURE
     1 4QH         1 TEMP              0 ****  ****    0 ROOT
