@<TRIPOS>MOLECULE
4QI
   42    46     1     0     0
SMALL
No Charge or Current Charge


@<TRIPOS>ATOM
      1 C1          19.5050   -33.9410    -8.7550 ca         1 4QI       0.079400
      2 C2          20.1590   -33.5970    -9.9050 ca         1 4QI       0.025100
      3 C3          19.8400   -32.4460   -10.6370 ca         1 4QI      -0.078000
      4 C4          18.8010   -31.6260   -10.1470 ca         1 4QI      -0.103000
      5 C5          18.1190   -31.9730    -8.9560 ca         1 4QI      -0.119000
      6 C6          18.4710   -33.1430    -8.2460 ca         1 4QI      -0.061000
      7 O7          21.1170   -34.5080   -10.1990 os         1 4QI      -0.253700
      8 C8          20.9480   -35.3960    -9.1500 cc         1 4QI       0.769500
      9 N9          20.0190   -35.1110    -8.2380 nd         1 4QI      -0.632100
     10 C13         22.7750   -38.0130   -12.1110 c6         1 4QI       0.288000
     11 C15         23.7620   -39.1310   -10.0820 c2         1 4QI       0.192800
     12 C19         24.1080   -40.2270   -12.2530 c          1 4QI       0.589300
     13 N25         24.8560   -36.5330   -12.6840 na         1 4QI       0.010800
     14 C27         24.5620   -36.1210   -14.7410 cc         1 4QI       0.250900
     15 C28         23.4790   -36.9180   -14.3390 cc         1 4QI       0.010000
     16 N10         21.7590   -36.4480    -8.9790 nu         1 4QI      -0.844400
     17 C14         23.5840   -39.1150   -11.4160 ce         1 4QI      -0.349400
     18 O23         24.3030   -40.1390   -13.4570 o          1 4QI      -0.517100
     19 C20         24.2590   -41.5540   -11.5110 c6         1 4QI      -0.181400
     20 C21         25.1140   -41.3250   -10.2400 c6         1 4QI      -0.064400
     21 C22         24.4870   -40.2390    -9.3220 c6         1 4QI      -0.059200
     22 N12         22.0770   -37.1260   -11.1620 n2         1 4QI      -0.632900
     23 N16         23.1550   -38.1160    -9.3800 nu         1 4QI      -0.807200
     24 C11         22.3390   -37.1920    -9.9200 c2         1 4QI       0.833100
     25 Cl29        22.1820   -37.4320   -15.3770 cl         1 4QI      -0.152000
     26 N26         25.4220   -35.8600   -13.7730 nd         1 4QI      -0.518800
     27 C24         23.6610   -37.1890   -13.0170 cd         1 4QI      -0.137300
     28 H3          20.3760   -32.1960   -11.5490 ha         1 4QI       0.140000
     29 H4          18.5240   -30.7230   -10.6880 ha         1 4QI       0.119000
     30 H5          17.3200   -31.3360    -8.5840 ha         1 4QI       0.117000
     31 H6          17.9560   -33.4190    -7.3290 ha         1 4QI       0.131000
     32 H15         22.0020   -38.5050   -12.7230 h1         1 4QI       0.118700
     33 H30         25.2930   -36.5230   -11.7640 hn         1 4QI       0.370000
     34 H27         24.7470   -35.7180   -15.7280 h4         1 4QI       0.045100
     35 H40         21.4590   -36.9770    -8.1780 hn         1 4QI       0.524000
     36 H201        23.2600   -41.8490   -11.1630 hc         1 4QI       0.075700
     37 H202        24.6640   -42.3300   -12.1740 hc         1 4QI       0.075700
     38 H211        25.2380   -42.2640    -9.6830 hc         1 4QI       0.054700
     39 H212        26.1230   -41.0070   -10.5400 hc         1 4QI       0.054700
     40 H222        23.7640   -40.7200    -8.6490 hc         1 4QI       0.064700
     41 H221        25.2630   -39.8060    -8.6770 hc         1 4QI       0.064700
     42 H18         23.4780   -37.9160    -8.4410 hn         1 4QI       0.506000
@<TRIPOS>BOND
     1     1     2 ar  
     2     1     6 ar  
     3     1     9 1   
     4     2     3 ar  
     5     2     7 1   
     6     3     4 ar  
     7     3    28 1   
     8     4     5 ar  
     9     4    29 1   
    10     5     6 ar  
    11     5    30 1   
    12     6    31 1   
    13     7     8 1   
    14     8     9 2   
    15     8    16 1   
    16    10    17 1   
    17    10    22 1   
    18    10    27 1   
    19    10    32 1   
    20    11    17 2   
    21    11    21 1   
    22    11    23 1   
    23    12    17 1   
    24    12    18 2   
    25    12    19 1   
    26    13    26 1   
    27    13    27 1   
    28    13    33 1   
    29    14    15 1   
    30    14    26 2   
    31    14    34 1   
    32    15    25 1   
    33    15    27 2   
    34    16    24 1   
    35    16    35 1   
    36    19    20 1   
    37    19    36 1   
    38    19    37 1   
    39    20    21 1   
    40    20    38 1   
    41    20    39 1   
    42    21    40 1   
    43    21    41 1   
    44    22    24 2   
    45    23    24 1   
    46    23    42 1   
@<TRIPOS>SUBSTRUCTURE
     1 4QI         1 TEMP              0 ****  ****    0 ROOT
