@<TRIPOS>MOLECULE
4QI
   42    46     1     0     0
SMALL
abcg2


@<TRIPOS>ATOM
      1 C1          19.5220   -33.9240    -8.9590 ca         1 4QI       0.079400
      2 C2          20.2360   -33.7920   -10.1450 ca         1 4QI       0.025100
      3 C3          20.0530   -32.7730   -11.0530 ca         1 4QI      -0.078000
      4 C4          19.0890   -31.8310   -10.7070 ca         1 4QI      -0.103000
      5 C5          18.3600   -31.9350    -9.5190 ca         1 4QI      -0.119000
      6 C6          18.5600   -32.9800    -8.6270 ca         1 4QI      -0.061000
      7 O7          21.1040   -34.8420   -10.2090 os         1 4QI      -0.253700
      8 C8          20.8550   -35.5460    -9.0920 cc         1 4QI       0.769500
      9 N9          19.9450   -35.0740    -8.3130 nd         1 4QI      -0.632100
     10 C13         22.5600   -38.1680   -11.9880 c6         1 4QI       0.288000
     11 C15         23.7260   -39.2270   -10.0940 c2         1 4QI       0.192800
     12 C19         23.7390   -40.4300   -12.2250 c          1 4QI       0.589300
     13 N25         24.7640   -37.1170   -12.6240 na         1 4QI       0.010800
     14 C27         24.2910   -35.4890   -13.8680 cc         1 4QI       0.250900
     15 C28         23.0840   -36.1100   -13.5190 cc         1 4QI       0.010000
     16 N10         21.6260   -36.6360    -8.8360 nu         1 4QI      -0.844400
     17 C14         23.3700   -39.2940   -11.3990 ce         1 4QI      -0.349400
     18 O23         23.4080   -40.4910   -13.3990 o          1 4QI      -0.517100
     19 C20         24.5210   -41.5370   -11.5590 c6         1 4QI      -0.181400
     20 C21         25.4050   -41.0200   -10.4330 c6         1 4QI      -0.064400
     21 C22         24.5810   -40.2460    -9.4170 c6         1 4QI      -0.059200
     22 N12         21.7730   -37.4590   -10.9920 n2         1 4QI      -0.632900
     23 N16         23.2550   -38.1970    -9.3350 nu         1 4QI      -0.807200
     24 C11         22.2090   -37.4340    -9.8060 c2         1 4QI       0.833100
     25 CL29        21.5010   -35.6520   -13.9810 cl         1 4QI      -0.152000
     26 N26         25.3070   -36.1220   -13.3130 nd         1 4QI      -0.518800
     27 C24         23.4240   -37.1710   -12.7080 cd         1 4QI      -0.137300
     28 H3          20.6200   -32.7070   -11.9720 ha         1 4QI       0.140000
     29 H4          18.9000   -31.0020   -11.3760 ha         1 4QI       0.119000
     30 H5          17.6170   -31.1810    -9.2920 ha         1 4QI       0.117000
     31 H6          17.9870   -33.0580    -7.7120 ha         1 4QI       0.131000
     32 H15         21.8630   -38.5740   -12.7250 h1         1 4QI       0.118700
     33 H30         25.3590   -37.7530   -12.1130 hn         1 4QI       0.370000
     34 H27         24.4440   -34.6230   -14.4940 h4         1 4QI       0.045100
     35 H40         21.5600   -36.9900    -7.8910 hn         1 4QI       0.524000
     36 H201        23.7970   -42.2560   -11.1560 hc         1 4QI       0.075700
     37 H202        25.1040   -42.0660   -12.3140 hc         1 4QI       0.075700
     38 H211        25.9120   -41.8500    -9.9420 hc         1 4QI       0.054700
     39 H212        26.1830   -40.3700   -10.8420 hc         1 4QI       0.054700
     40 H222        23.9270   -40.9240    -8.8580 hc         1 4QI       0.064700
     41 H221        25.2230   -39.7570    -8.6800 hc         1 4QI       0.064700
     42 H18         23.5670   -38.0990    -8.3790 hn         1 4QI       0.506000
@<TRIPOS>BOND
     1     1     2 ar  
     2     1     6 ar  
     3     1     9 1   
     4     2     3 ar  
     5     2     7 1   
     6     3     4 ar  
     7     3    28 1   
     8     4     5 ar  
     9     4    29 1   
    10     5     6 ar  
    11     5    30 1   
    12     6    31 1   
    13     7     8 1   
    14     8     9 2   
    15     8    16 1   
    16    10    17 1   
    17    10    22 1   
    18    10    27 1   
    19    10    32 1   
    20    11    17 2   
    21    11    21 1   
    22    11    23 1   
    23    12    17 1   
    24    12    18 2   
    25    12    19 1   
    26    13    26 1   
    27    13    27 1   
    28    13    33 1   
    29    14    15 1   
    30    14    26 2   
    31    14    34 1   
    32    15    25 1   
    33    15    27 2   
    34    16    24 1   
    35    16    35 1   
    36    19    20 1   
    37    19    36 1   
    38    19    37 1   
    39    20    21 1   
    40    20    38 1   
    41    20    39 1   
    42    21    40 1   
    43    21    41 1   
    44    22    24 2   
    45    23    24 1   
    46    23    42 1   
@<TRIPOS>SUBSTRUCTURE
     1 4QI         1 TEMP              0 ****  ****    0 ROOT
