@<TRIPOS>MOLECULE
4QJ
   64    70     1     0     0
SMALL
No Charge or Current Charge


@<TRIPOS>ATOM
      1 C4           7.5930     0.9510     1.0310 ca         1 4QJ      -0.050000
      2 C5           3.3990     1.1160    -0.4240 ca         1 4QJ      -0.079500
      3 C6           3.7270    -1.1060    -1.3430 ca         1 4QJ      -0.079500
      4 C7           2.1310     1.1760    -1.0270 ca         1 4QJ      -0.104500
      5 C8           2.4610    -1.0440    -1.9470 ca         1 4QJ      -0.104500
      6 C10          0.3680    -3.7060     0.4670 ca         1 4QJ      -0.146000
      7 C13          4.2330    -0.0260    -0.5680 cp         1 4QJ      -0.139500
      8 C15          1.6540     0.0970    -1.7930 ca         1 4QJ      -0.121300
      9 C17          5.5930    -0.0950     0.0790 cp         1 4QJ       0.438500
     10 C20         -1.1010    -0.3620    -0.3060 cc         1 4QJ       0.365000
     11 C21         -2.8740     0.0240     1.4940 c          1 4QJ       0.640600
     12 C22         -4.1470     1.9930     0.8500 cc         1 4QJ       0.685800
     13 C24         -6.3310     3.7850    -0.9100 c5         1 4QJ      -0.077400
     14 C26         -4.9950     3.8830    -0.1040 c5         1 4QJ       0.118500
     15 C1          -1.2370    -5.5340     0.4260 ca         1 4QJ      -0.136000
     16 C2          -2.2750    -4.6160     0.1940 ca         1 4QJ      -0.076500
     17 C3           0.0860    -5.0800     0.5620 ca         1 4QJ      -0.076500
     18 C9          -1.9880    -3.2430     0.1000 ca         1 4QJ      -0.146000
     19 C11          6.3300     1.0680     0.4290 ca         1 4QJ      -0.170000
     20 C12          8.0890    -0.3390     1.2650 ca         1 4QJ      -0.194000
     21 C14         -2.1520     0.2800     0.2590 cd         1 4QJ      -0.373600
     22 C16         -0.6660    -2.7820     0.2420 ca         1 4QJ       0.322000
     23 C18         -2.4390     1.3230    -0.5770 cd         1 4QJ       0.573900
     24 C19          7.3070    -1.4360     0.8840 ca         1 4QJ       0.581200
     25 C23         -6.0550     2.6270    -1.9040 c5         1 4QJ      -0.083400
     26 C25         -4.6360     3.0190    -2.3870 c5         1 4QJ      -0.090400
     27 C27         -3.8850     3.3230    -1.0520 c5         1 4QJ       0.211500
     28 C29          0.2630     0.1500    -2.4230 c3         1 4QJ       0.127900
     29 N30          6.0960    -1.3310     0.3040 nb         1 4QJ      -0.715000
     30 N31         -1.6790     1.4810    -1.6290 nc         1 4QJ      -0.573800
     31 N32         -5.0570     2.9020     1.0530 n2         1 4QJ      -0.683900
     32 N33         -0.8100     0.4120    -1.4470 na         1 4QJ       0.094800
     33 N34         -3.4490     2.1840    -0.2970 na         1 4QJ      -0.759300
     34 N35         -3.9140     0.9420     1.7310 n          1 4QJ      -0.334300
     35 O37         -2.6110    -0.8900     2.2630 o          1 4QJ      -0.527000
     36 F38          7.7460    -2.6970     1.0830 f          1 4QJ      -0.226200
     37 H1           8.1700     1.8340     1.3040 ha         1 4QJ       0.126000
     38 H2           3.7220     1.9630     0.1750 ha         1 4QJ       0.130000
     39 H3           4.3260    -2.0030    -1.4850 ha         1 4QJ       0.130000
     40 H4           1.5170     2.0640    -0.8910 ha         1 4QJ       0.125500
     41 H5           2.1080    -1.8910    -2.5330 ha         1 4QJ       0.125500
     42 H7          -7.2030     3.5980    -0.2730 hc         1 4QJ       0.054200
     43 H8          -6.5260     4.7200    -1.4480 hc         1 4QJ       0.054200
     44 H9          -4.7850     4.9040     0.2460 h1         1 4QJ       0.076700
     45 H13         -1.4580    -6.5970     0.4990 ha         1 4QJ       0.115000
     46 H14         -3.2990    -4.9670     0.0860 ha         1 4QJ       0.113000
     47 H15          0.8900    -5.7910     0.7390 ha         1 4QJ       0.113000
     48 H16         -2.7950    -2.5420    -0.0860 ha         1 4QJ       0.117500
     49 H17          5.9320     2.0550     0.2200 ha         1 4QJ       0.132000
     50 H18          9.0580    -0.4950     1.7270 ha         1 4QJ       0.145000
     51 H19         -6.0700     1.6460    -1.4130 hc         1 4QJ       0.050700
     52 H20         -6.7830     2.5960    -2.7220 hc         1 4QJ       0.050700
     53 H21         -4.1550     2.2240    -2.9680 hc         1 4QJ       0.058200
     54 H22         -4.6670     3.9080    -3.0270 hc         1 4QJ       0.058200
     55 H23         -3.0620     4.0370    -1.1970 h1         1 4QJ       0.076700
     56 H24          0.2460     0.9350    -3.1890 h1         1 4QJ       0.080700
     57 H25          0.0410    -0.8010    -2.9220 h1         1 4QJ       0.080700
     58 N36         -0.3540    -1.4290     0.1370 nu         1 4QJ      -0.990000
     59 C28         -4.7290     0.7820     2.9620 c3         1 4QJ       0.094300
     60 H6           1.3930    -3.3610     0.5710 ha         1 4QJ       0.117500
     61 H10         -5.7510     1.1480     2.8010 h1         1 4QJ       0.054700
     62 H11         -4.7970    -0.2740     3.2510 h1         1 4QJ       0.054700
     63 H12         -4.2700     1.3490     3.7810 h1         1 4QJ       0.054700
     64 H26          0.6460    -1.2660     0.0120 hn         1 4QJ       0.511000
@<TRIPOS>BOND
     1     1    19 ar  
     2     1    20 ar  
     3     1    37 1   
     4     2     4 ar  
     5     2     7 ar  
     6     2    38 1   
     7     3     5 ar  
     8     3     7 ar  
     9     3    39 1   
    10     4     8 ar  
    11     4    40 1   
    12     5     8 ar  
    13     5    41 1   
    14     6    17 ar  
    15     6    22 ar  
    16     6    60 1   
    17     7     9 1   
    18     8    28 1   
    19     9    19 ar  
    20     9    29 ar  
    21    10    21 2   
    22    10    32 1   
    23    10    58 1   
    24    11    21 1   
    25    11    34 1   
    26    11    35 2   
    27    12    31 2   
    28    12    33 1   
    29    12    34 1   
    30    13    14 1   
    31    13    25 1   
    32    13    42 1   
    33    13    43 1   
    34    14    27 1   
    35    14    31 1   
    36    14    44 1   
    37    15    16 ar  
    38    15    17 ar  
    39    15    45 1   
    40    16    18 ar  
    41    16    46 1   
    42    17    47 1   
    43    18    22 ar  
    44    18    48 1   
    45    19    49 1   
    46    20    24 ar  
    47    20    50 1   
    48    21    23 1   
    49    22    58 1   
    50    23    30 2   
    51    23    33 1   
    52    24    29 ar  
    53    24    36 1   
    54    25    26 1   
    55    25    51 1   
    56    25    52 1   
    57    26    27 1   
    58    26    53 1   
    59    26    54 1   
    60    27    33 1   
    61    27    55 1   
    62    28    32 1   
    63    28    56 1   
    64    28    57 1   
    65    30    32 1   
    66    34    59 1   
    67    58    64 1   
    68    59    61 1   
    69    59    62 1   
    70    59    63 1   
@<TRIPOS>SUBSTRUCTURE
     1 4QJ         1 TEMP              0 ****  ****    0 ROOT
