@<TRIPOS>MOLECULE
4QJ
   64    70     1     0     0
SMALL
bcc


@<TRIPOS>ATOM
      1 C4           7.4470     1.5250     0.9080 ca         1 4QJ      -0.068000
      2 C5           3.3310     1.2140    -0.4870 ca         1 4QJ      -0.097500
      3 C6           3.9240    -0.9380    -1.3600 ca         1 4QJ      -0.097500
      4 C7           2.0820     1.1110    -1.0710 ca         1 4QJ      -0.122500
      5 C8           2.6730    -1.0380    -1.9500 ca         1 4QJ      -0.122500
      6 C10         -0.1920    -4.0570     0.6840 ca         1 4QJ      -0.164000
      7 C13          4.2730     0.1920    -0.6250 cp         1 4QJ      -0.139500
      8 C15          1.7400    -0.0160    -1.8140 ca         1 4QJ      -0.121300
      9 C17          5.6090     0.2910    -0.0030 cp         1 4QJ       0.503800
     10 C20         -1.0540    -0.6920    -0.4980 cc         1 4QJ       0.277300
     11 C21         -2.8660    -0.3080     1.3360 c          1 4QJ       0.783100
     12 C22         -4.0020     1.8160     0.8790 cc         1 4QJ       0.685800
     13 C24         -5.9700     3.8790    -0.7300 c5         1 4QJ      -0.077400
     14 C26         -4.7070     3.7680     0.1340 c5         1 4QJ       0.118500
     15 C1          -2.0680    -5.5690     0.7460 ca         1 4QJ      -0.154000
     16 C2          -2.8570    -4.5900     0.1570 ca         1 4QJ      -0.094500
     17 C3          -0.7300    -5.2950     1.0000 ca         1 4QJ      -0.094500
     18 C9          -2.3280    -3.3540    -0.1760 ca         1 4QJ      -0.164000
     19 C11          6.1870     1.5140     0.3240 ca         1 4QJ      -0.253300
     20 C12          8.1050     0.3330     1.1470 ca         1 4QJ      -0.277300
     21 C14         -2.1160    -0.0490     0.1380 cd         1 4QJ      -0.438900
     22 C16         -0.9890    -3.0760     0.0970 ca         1 4QJ       0.183600
     23 C18         -2.2750     1.1360    -0.6000 cd         1 4QJ       0.639200
     24 C19          7.4320    -0.8140     0.7630 ca         1 4QJ       0.646500
     25 C23         -5.7410     2.8960    -1.8740 c5         1 4QJ      -0.083400
     26 C25         -4.2680     3.1160    -2.2140 c5         1 4QJ      -0.090400
     27 C27         -3.5900     3.2900    -0.8540 c5         1 4QJ       0.211500
     28 C29          0.3790    -0.1340    -2.4520 c3         1 4QJ       0.098600
     29 N30          6.2530    -0.8590     0.2190 nb         1 4QJ      -0.715000
     30 N31         -1.4170     1.2580    -1.5800 nc         1 4QJ      -0.573800
     31 N32         -4.8310     2.7410     1.1630 n2         1 4QJ      -0.683900
     32 N33         -0.6940     0.1080    -1.5150 na         1 4QJ       0.073400
     33 N34         -3.2300     2.0250    -0.2380 na         1 4QJ      -0.759300
     34 N35         -3.8320     0.6610     1.6150 n          1 4QJ      -0.401300
     35 O37         -2.7020    -1.2640     2.0700 o          1 4QJ      -0.602500
     36 F38          8.0210    -1.9970     0.9590 f          1 4QJ      -0.226200
     37 H1           7.9150     2.4650     1.1680 ha         1 4QJ       0.144000
     38 H2           3.5610     2.0950     0.0990 ha         1 4QJ       0.148000
     39 H3           4.6350    -1.7440    -1.4770 ha         1 4QJ       0.148000
     40 H4           1.3660     1.9140    -0.9410 ha         1 4QJ       0.143500
     41 H5           2.4240    -1.9230    -2.5240 ha         1 4QJ       0.143500
     42 H7          -6.8720     3.6830    -0.1490 hc         1 4QJ       0.054200
     43 H8          -6.0520     4.8940    -1.1290 hc         1 4QJ       0.054200
     44 H9          -4.4630     4.7240     0.6030 h1         1 4QJ       0.076700
     45 H13         -2.4870    -6.5340     1.0000 ha         1 4QJ       0.133000
     46 H14         -3.8980    -4.7910    -0.0610 ha         1 4QJ       0.131000
     47 H15         -0.0970    -6.0470     1.4530 ha         1 4QJ       0.131000
     48 H16         -2.9540    -2.6160    -0.6610 ha         1 4QJ       0.135500
     49 H17          5.6800     2.4450     0.1170 ha         1 4QJ       0.150000
     50 H18          9.0850     0.2920     1.6010 ha         1 4QJ       0.163000
     51 H19         -5.9120     1.8690    -1.5410 hc         1 4QJ       0.050700
     52 H20         -6.4000     3.0730    -2.7240 hc         1 4QJ       0.050700
     53 H21         -3.8200     2.3170    -2.8070 hc         1 4QJ       0.058200
     54 H22         -4.1550     4.0410    -2.7840 hc         1 4QJ       0.058200
     55 H23         -2.7190     3.9460    -0.8940 h1         1 4QJ       0.076700
     56 H24          0.2600     0.5940    -3.2540 h1         1 4QJ       0.080700
     57 H25          0.2500    -1.1250    -2.8900 h1         1 4QJ       0.080700
     58 N36         -0.4000    -1.8620    -0.2530 nu         1 4QJ      -0.658000
     59 C28         -4.6590     0.5180     2.8030 c3         1 4QJ       0.094300
     60 H6           0.8500    -3.8500     0.8970 ha         1 4QJ       0.135500
     61 H10         -5.6690     0.8500     2.5820 h1         1 4QJ       0.054700
     62 H11         -4.6820    -0.5240     3.1010 h1         1 4QJ       0.054700
     63 H12         -4.2680     1.1150     3.6280 h1         1 4QJ       0.054700
     64 H26          0.6060    -1.8490    -0.3260 hn         1 4QJ       0.455800
@<TRIPOS>BOND
     1     1    19 ar  
     2     1    20 ar  
     3     1    37 1   
     4     2     4 ar  
     5     2     7 ar  
     6     2    38 1   
     7     3     5 ar  
     8     3     7 ar  
     9     3    39 1   
    10     4     8 ar  
    11     4    40 1   
    12     5     8 ar  
    13     5    41 1   
    14     6    17 ar  
    15     6    22 ar  
    16     6    60 1   
    17     7     9 1   
    18     8    28 1   
    19     9    19 ar  
    20     9    29 ar  
    21    10    21 2   
    22    10    32 1   
    23    10    58 1   
    24    11    21 1   
    25    11    34 1   
    26    11    35 2   
    27    12    31 2   
    28    12    33 1   
    29    12    34 1   
    30    13    14 1   
    31    13    25 1   
    32    13    42 1   
    33    13    43 1   
    34    14    27 1   
    35    14    31 1   
    36    14    44 1   
    37    15    16 ar  
    38    15    17 ar  
    39    15    45 1   
    40    16    18 ar  
    41    16    46 1   
    42    17    47 1   
    43    18    22 ar  
    44    18    48 1   
    45    19    49 1   
    46    20    24 ar  
    47    20    50 1   
    48    21    23 1   
    49    22    58 1   
    50    23    30 2   
    51    23    33 1   
    52    24    29 ar  
    53    24    36 1   
    54    25    26 1   
    55    25    51 1   
    56    25    52 1   
    57    26    27 1   
    58    26    53 1   
    59    26    54 1   
    60    27    33 1   
    61    27    55 1   
    62    28    32 1   
    63    28    56 1   
    64    28    57 1   
    65    30    32 1   
    66    34    59 1   
    67    58    64 1   
    68    59    61 1   
    69    59    62 1   
    70    59    63 1   
@<TRIPOS>SUBSTRUCTURE
     1 4QJ         1 TEMP              0 ****  ****    0 ROOT
