@<TRIPOS>MOLECULE
4QL
   41    41     1     0     0
SMALL
bcc


@<TRIPOS>ATOM
      1 O25         -2.0010    -0.0860     1.3830 o          1 4QL      -0.574100
      2 C17         -2.3030    -0.0450     0.2060 c          1 4QL       0.676100
      3 C18         -3.7220    -0.0340    -0.3070 c3         1 4QL      -0.160400
      4 C19         -4.7840    -0.0330     0.7790 c3         1 4QL      -0.061400
      5 C20         -6.1880    -0.0110     0.1860 c3         1 4QL      -0.077400
      6 C21         -7.2880    -0.0100     1.2390 c3         1 4QL      -0.074400
      7 C22         -8.6860     0.0230     0.6350 c3         1 4QL      -0.075400
      8 C23         -9.7980     0.0200     1.6760 c3         1 4QL      -0.076400
      9 C24        -11.1880     0.0650     1.0550 c3         1 4QL      -0.087100
     10 N13         -1.3640    -0.0060    -0.7760 ns         1 4QL      -0.490100
     11 C5           0.0130    -0.0010    -0.5040 ca         1 4QL       0.059600
     12 C6           0.7330    -1.1900    -0.4080 ca         1 4QL       0.070400
     13 I3          -0.3050    -3.0080    -0.6560 i          1 4QL      -0.248400
     14 C4           0.7080     1.1960    -0.3430 ca         1 4QL       0.070400
     15 I2          -0.3690     3.0030    -0.4880 i          1 4QL      -0.248400
     16 C3           2.0750     1.2360    -0.1010 ca         1 4QL      -0.059600
     17 C10          2.8130     2.5660     0.0680 c          1 4QL       0.937200
     18 O12          2.8430     3.0060     1.2240 o          1 4QL      -0.805800
     19 O11          3.2870     3.0410    -0.9720 o          1 4QL      -0.805800
     20 C2           2.7340     0.0150    -0.0210 ca         1 4QL       0.101900
     21 I1           4.8210     0.0260     0.3410 i          1 4QL      -0.208900
     22 C1           2.1000    -1.2140    -0.1660 ca         1 4QL      -0.059600
     23 C7           2.8660    -2.5350    -0.0680 c          1 4QL       0.937200
     24 O8           3.3300    -2.9540    -1.1370 o          1 4QL      -0.805800
     25 O9           2.9240    -3.0260     1.0670 o          1 4QL      -0.805800
     26 H1          -3.8440     0.8400    -0.9570 hc         1 4QL       0.048700
     27 H2          -3.8520    -0.9010    -0.9630 hc         1 4QL       0.048700
     28 H3          -4.6700    -0.9150     1.4140 hc         1 4QL       0.054700
     29 H4          -4.6510     0.8350     1.4300 hc         1 4QL       0.054700
     30 H5          -6.2980     0.8720    -0.4540 hc         1 4QL       0.030700
     31 H6          -6.3170    -0.8760    -0.4730 hc         1 4QL       0.030700
     32 H7          -7.1860    -0.8970     1.8740 hc         1 4QL       0.038700
     33 H8          -7.1580     0.8530     1.9020 hc         1 4QL       0.038700
     34 H9          -8.7860     0.9110     0.0010 hc         1 4QL       0.033700
     35 H10         -8.8130    -0.8370    -0.0330 hc         1 4QL       0.033700
     36 H11         -9.7040    -0.8720     2.3040 hc         1 4QL       0.036700
     37 H12         -9.6690     0.8760     2.3460 hc         1 4QL       0.036700
     38 H13        -11.3200     0.9660     0.4520 hc         1 4QL       0.026033
     39 H14        -11.3550    -0.7940     0.4010 hc         1 4QL       0.026033
     40 H15        -11.9690     0.0580     1.8160 hc         1 4QL       0.026033
     41 H16         -1.6580     0.0340    -1.7420 hn         1 4QL       0.311500
@<TRIPOS>BOND
     1     1     2 2   
     2     2     3 1   
     3     2    10 1   
     4     3     4 1   
     5     3    26 1   
     6     3    27 1   
     7     4     5 1   
     8     4    28 1   
     9     4    29 1   
    10     5     6 1   
    11     5    30 1   
    12     5    31 1   
    13     6     7 1   
    14     6    32 1   
    15     6    33 1   
    16     7     8 1   
    17     7    34 1   
    18     7    35 1   
    19     8     9 1   
    20     8    36 1   
    21     8    37 1   
    22     9    38 1   
    23     9    39 1   
    24     9    40 1   
    25    10    11 1   
    26    10    41 1   
    27    11    12 ar  
    28    11    14 ar  
    29    12    13 1   
    30    12    22 ar  
    31    14    15 1   
    32    14    16 ar  
    33    16    17 1   
    34    16    20 ar  
    35    17    18 1   
    36    17    19 1   
    37    20    21 1   
    38    20    22 ar  
    39    22    23 1   
    40    23    24 1   
    41    23    25 1   
@<TRIPOS>SUBSTRUCTURE
     1 4QL         1 TEMP              0 ****  ****    0 ROOT
