@<TRIPOS>MOLECULE
4QL
   41    41     1     0     0
SMALL
No Charge or Current Charge


@<TRIPOS>ATOM
      1 O25         -1.9020    -1.9330     1.0960 o          1 4QL      -0.574100
      2 C17         -2.3020    -1.2660     0.1480 c          1 4QL       0.609100
      3 C18         -3.7550    -1.3250    -0.3410 c3         1 4QL      -0.160400
      4 C19         -4.7070    -0.5680     0.6150 c3         1 4QL      -0.061400
      5 C20         -6.1780    -0.5940     0.1460 c3         1 4QL      -0.077400
      6 C21         -7.1290     0.1640     1.0990 c3         1 4QL      -0.074400
      7 C22         -8.6000     0.1380     0.6290 c3         1 4QL      -0.075400
      8 C23         -9.5510     0.8960     1.5810 c3         1 4QL      -0.076400
      9 C24        -11.0190     0.8710     1.1130 c3         1 4QL      -0.087100
     10 N13         -1.4810    -0.4130    -0.5660 ns         1 4QL      -0.164000
     11 C5          -0.1000    -0.1490    -0.3810 ca         1 4QL      -0.033000
     12 C6           0.8760    -1.1330    -0.6520 ca         1 4QL       0.207500
     13 I3           0.2720    -3.0810    -1.4640 i          1 4QL      -0.385500
     14 C4           0.3000     1.1220     0.0750 ca         1 4QL       0.207500
     15 I2          -1.2320     2.6360     0.4820 i          1 4QL      -0.385500
     16 C3           1.6610     1.4050     0.2800 ca         1 4QL      -0.059600
     17 C10          2.0770     2.7470     0.7700 c          1 4QL       0.726600
     18 O12          2.1620     2.9150     1.9790 o          1 4QL      -0.700500
     19 O11          2.3160     3.6130    -0.0600 o          1 4QL      -0.700500
     20 C2           2.6300     0.4200     0.0210 ca         1 4QL       0.239000
     21 I1           4.7550     0.8620     0.3420 i          1 4QL      -0.346000
     22 C1           2.2380    -0.8460    -0.4490 ca         1 4QL      -0.059600
     23 C7           3.2680    -1.8800    -0.7390 c          1 4QL       0.726600
     24 O8           3.7590    -1.9020    -1.8590 o          1 4QL      -0.700500
     25 O9           3.5770    -2.6510     0.1590 o          1 4QL      -0.700500
     26 H1          -3.8320    -0.8720    -1.3370 hc         1 4QL       0.048700
     27 H2          -4.0690    -2.3750    -0.3850 hc         1 4QL       0.048700
     28 H3          -4.6400    -1.0090     1.6180 hc         1 4QL       0.054700
     29 H4          -4.3750     0.4750     0.7030 hc         1 4QL       0.054700
     30 H5          -6.2440    -0.1510    -0.8560 hc         1 4QL       0.030700
     31 H6          -6.5100    -1.6360     0.0600 hc         1 4QL       0.030700
     32 H7          -7.0630    -0.2790     2.1010 hc         1 4QL       0.038700
     33 H8          -6.7970     1.2060     1.1860 hc         1 4QL       0.038700
     34 H9          -8.6660     0.5810    -0.3730 hc         1 4QL       0.033700
     35 H10         -8.9320    -0.9040     0.5420 hc         1 4QL       0.033700
     36 H11         -9.4900     0.4550     2.5840 hc         1 4QL       0.036700
     37 H12         -9.2230     1.9390     1.6690 hc         1 4QL       0.036700
     38 H13        -11.1200     1.3380     0.1260 hc         1 4QL       0.026033
     39 H14        -11.3880    -0.1600     1.0490 hc         1 4QL       0.026033
     40 H15        -11.6540     1.4190     1.8180 hc         1 4QL       0.026033
     41 H16         -1.9330     0.1230    -1.2970 hn         1 4QL       0.145000
@<TRIPOS>BOND
     1     1     2 2   
     2     2     3 1   
     3     2    10 1   
     4     3     4 1   
     5     3    26 1   
     6     3    27 1   
     7     4     5 1   
     8     4    28 1   
     9     4    29 1   
    10     5     6 1   
    11     5    30 1   
    12     5    31 1   
    13     6     7 1   
    14     6    32 1   
    15     6    33 1   
    16     7     8 1   
    17     7    34 1   
    18     7    35 1   
    19     8     9 1   
    20     8    36 1   
    21     8    37 1   
    22     9    38 1   
    23     9    39 1   
    24     9    40 1   
    25    10    11 1   
    26    10    41 1   
    27    11    12 ar  
    28    11    14 ar  
    29    12    13 1   
    30    12    22 ar  
    31    14    15 1   
    32    14    16 ar  
    33    16    17 1   
    34    16    20 ar  
    35    17    18 1   
    36    17    19 1   
    37    20    21 1   
    38    20    22 ar  
    39    22    23 1   
    40    23    24 1   
    41    23    25 1   
@<TRIPOS>SUBSTRUCTURE
     1 4QL         1 TEMP              0 ****  ****    0 ROOT
