@<TRIPOS>MOLECULE
4QM
   69    72     1     0     0
SMALL
No Charge or Current Charge


@<TRIPOS>ATOM
      1 C1           3.7360     1.7200    -0.8610 c6         1 4QM      -0.066400
      2 C2           2.9690     0.3720    -1.1250 c6         1 4QM      -0.034000
      3 C3           0.5980     1.5420    -0.9820 c6         1 4QM      -0.110400
      4 C4          -0.8460     1.5100    -0.3880 c6         1 4QM       0.184300
      5 C5          -1.5640     0.1330    -0.6700 c5         1 4QM      -0.031000
      6 C6          -0.6530    -1.0150    -0.1070 c5         1 4QM      -0.059700
      7 C7          -1.5280    -2.2740    -0.3260 c5         1 4QM      -0.070400
      8 C8          -2.9640    -1.7720     0.0190 c5         1 4QM      -0.077400
      9 C9          -2.8610    -0.2060     0.1840 c5         1 4QM      -0.049700
     10 C10         -1.8580     0.0530    -2.2150 c3         1 4QM      -0.084100
     11 C11          2.9200     0.2100    -2.6890 c3         1 4QM      -0.087100
     12 C12          4.0890     1.9660     0.6250 c6         1 4QM      -0.111400
     13 C13          4.9580     0.8090     1.1640 c6         1 4QM       0.172300
     14 C14          4.2200    -0.5360     0.9900 c6         1 4QM      -0.076400
     15 C15          3.8180    -0.8020    -0.5000 c6         1 4QM      -0.041700
     16 C16          3.1110    -2.1850    -0.6750 c6         1 4QM      -0.105400
     17 C17          1.6480    -2.2320    -0.1510 c6         1 4QM       0.178300
     18 C18          0.7950    -1.0370    -0.7000 c6         1 4QM      -0.033700
     19 C19          1.5070     0.3570    -0.4890 c6         1 4QM      -0.038700
     20 C20         -4.2170     0.5340    -0.1320 c3         1 4QM      -0.046700
     21 C21         -4.1110     2.0810    -0.1020 c3         1 4QM      -0.085100
     22 C22         -5.3690     0.0370     0.8030 c3         1 4QM      -0.076400
     23 C23         -6.7950     0.5150     0.4290 c3         1 4QM      -0.075400
     24 C24         -7.8930    -0.1600     1.2750 c3         1 4QM      -0.089100
     25 O2           5.2630     1.0280     2.5440 oh         1 4QM      -0.658000
     26 O3           1.6270    -2.3130     1.2810 oh         1 4QM      -0.655000
     27 O4          -0.7880     1.8230     1.0140 oh         1 4QM      -0.656000
     28 H1           4.6760     1.7150    -1.4300 hc         1 4QM       0.038200
     29 H2           3.1790     2.5780    -1.2560 hc         1 4QM       0.038200
     30 H3           0.5350     1.5520    -2.0760 hc         1 4QM       0.040200
     31 H4           1.0480     2.5040    -0.7070 hc         1 4QM       0.040200
     32 H5          -1.3980     2.3080    -0.9000 h1         1 4QM       0.028700
     33 H6          -0.5010    -0.8700     0.9710 hc         1 4QM       0.082700
     34 H7          -1.4660    -2.6400    -1.3580 hc         1 4QM       0.039700
     35 H8          -1.2200    -3.1040     0.3200 hc         1 4QM       0.039700
     36 H9          -3.6660    -2.0560    -0.7740 hc         1 4QM       0.038700
     37 H10         -3.3310    -2.2400     0.9390 hc         1 4QM       0.038700
     38 H11         -2.6680     0.0060     1.2430 hc         1 4QM       0.068700
     39 H12         -0.9450     0.0170    -2.8170 hc         1 4QM       0.032700
     40 H13         -2.4500    -0.8250    -2.4930 hc         1 4QM       0.032700
     41 H14         -2.4260     0.9280    -2.5520 hc         1 4QM       0.032700
     42 H15          3.9310     0.1410    -3.1080 hc         1 4QM       0.032367
     43 H16          2.3880    -0.6850    -3.0210 hc         1 4QM       0.032367
     44 H17          2.4430     1.0690    -3.1740 hc         1 4QM       0.032367
     45 H18          4.6350     2.9150     0.7160 hc         1 4QM       0.046700
     46 H19          3.1760     2.0760     1.2250 hc         1 4QM       0.046700
     47 H20          5.8910     0.7710     0.5820 h1         1 4QM       0.022700
     48 H21          4.8660    -1.3500     1.3470 hc         1 4QM       0.060700
     49 H22          3.3450    -0.5320     1.6480 hc         1 4QM       0.060700
     50 H23          4.7630    -0.8620    -1.0590 hc         1 4QM       0.039700
     51 H24          3.1070    -2.4550    -1.7390 hc         1 4QM       0.043200
     52 H25          3.7050    -2.9710    -0.1900 hc         1 4QM       0.043200
     53 H26          1.2000    -3.1560    -0.5460 h1         1 4QM       0.026700
     54 H27          0.6800    -1.2110    -1.7750 hc         1 4QM       0.044700
     55 H28          1.6080     0.4890     0.5950 hc         1 4QM       0.071700
     56 H29         -4.5120     0.2650    -1.1540 hc         1 4QM       0.040700
     57 H30         -3.7120     2.4330     0.8560 hc         1 4QM       0.031367
     58 H31         -3.4760     2.4470    -0.9120 hc         1 4QM       0.031367
     59 H32         -5.0830     2.5590    -0.2590 hc         1 4QM       0.031367
     60 H33         -5.3900    -1.0580     0.8020 hc         1 4QM       0.039200
     61 H34         -5.1490     0.3380     1.8350 hc         1 4QM       0.039200
     62 H35         -6.8820     1.5980     0.5680 hc         1 4QM       0.036200
     63 H36         -6.9850     0.3060    -0.6310 hc         1 4QM       0.036200
     64 H37         -7.7460     0.0520     2.3410 hc         1 4QM       0.030367
     65 H38         -8.8820     0.2120     0.9840 hc         1 4QM       0.030367
     66 H39         -7.8800    -1.2470     1.1330 hc         1 4QM       0.030367
     67 H40          5.7520     1.8790     2.5900 ho         1 4QM       0.439000
     68 H41          2.1240    -3.1230     1.5220 ho         1 4QM       0.438000
     69 H42         -1.7140     1.9170     1.3190 ho         1 4QM       0.438000
@<TRIPOS>BOND
     1     1     2 1   
     2     1    12 1   
     3     1    28 1   
     4     1    29 1   
     5     2    11 1   
     6     2    15 1   
     7     2    19 1   
     8     3     4 1   
     9     3    19 1   
    10     3    30 1   
    11     3    31 1   
    12     4     5 1   
    13     4    27 1   
    14     4    32 1   
    15     5     6 1   
    16     5     9 1   
    17     5    10 1   
    18     6     7 1   
    19     6    18 1   
    20     6    33 1   
    21     7     8 1   
    22     7    34 1   
    23     7    35 1   
    24     8     9 1   
    25     8    36 1   
    26     8    37 1   
    27     9    20 1   
    28     9    38 1   
    29    10    39 1   
    30    10    40 1   
    31    10    41 1   
    32    11    42 1   
    33    11    43 1   
    34    11    44 1   
    35    12    13 1   
    36    12    45 1   
    37    12    46 1   
    38    13    14 1   
    39    13    25 1   
    40    13    47 1   
    41    14    15 1   
    42    14    48 1   
    43    14    49 1   
    44    15    16 1   
    45    15    50 1   
    46    16    17 1   
    47    16    51 1   
    48    16    52 1   
    49    17    18 1   
    50    17    26 1   
    51    17    53 1   
    52    18    19 1   
    53    18    54 1   
    54    19    55 1   
    55    20    21 1   
    56    20    22 1   
    57    20    56 1   
    58    21    57 1   
    59    21    58 1   
    60    21    59 1   
    61    22    23 1   
    62    22    60 1   
    63    22    61 1   
    64    23    24 1   
    65    23    62 1   
    66    23    63 1   
    67    24    64 1   
    68    24    65 1   
    69    24    66 1   
    70    25    67 1   
    71    26    68 1   
    72    27    69 1   
@<TRIPOS>SUBSTRUCTURE
     1 4QM         1 TEMP              0 ****  ****    0 ROOT
