@<TRIPOS>MOLECULE
4QM
   69    72     1     0     0
SMALL
bcc


@<TRIPOS>ATOM
      1 C1           3.6090     1.7150    -0.8120 c6         1 4QM      -0.066400
      2 C2           2.8560     0.4050    -1.1050 c6         1 4QM      -0.034000
      3 C3           0.5460     1.5070    -0.9040 c6         1 4QM      -0.110400
      4 C4          -0.8580     1.5010    -0.2880 c6         1 4QM       0.161100
      5 C5          -1.5490     0.1530    -0.5300 c5         1 4QM      -0.031000
      6 C6          -0.6230    -0.9610     0.0020 c5         1 4QM      -0.059700
      7 C7          -1.4850    -2.2120    -0.0880 c5         1 4QM      -0.070400
      8 C8          -2.9030    -1.7060     0.2420 c5         1 4QM      -0.077400
      9 C9          -2.8440    -0.1540     0.2690 c5         1 4QM      -0.049700
     10 C10         -1.8360     0.0120    -2.0310 c3         1 4QM      -0.084100
     11 C11          2.7500     0.3080    -2.6340 c3         1 4QM      -0.087100
     12 C12          4.0340     1.8990     0.6370 c6         1 4QM      -0.111400
     13 C13          4.9200     0.7370     1.0610 c6         1 4QM       0.149100
     14 C14          4.1700    -0.5690     0.8790 c6         1 4QM      -0.076400
     15 C15          3.7090    -0.7710    -0.5700 c6         1 4QM      -0.041700
     16 C16          3.0010    -2.1110    -0.7720 c6         1 4QM      -0.105400
     17 C17          1.5920    -2.1790    -0.1890 c6         1 4QM       0.155100
     18 C18          0.7530    -0.9900    -0.6510 c6         1 4QM      -0.033700
     19 C19          1.4560     0.3660    -0.4390 c6         1 4QM      -0.038700
     20 C20         -4.1660     0.4840    -0.1870 c3         1 4QM      -0.046700
     21 C21         -4.1220     2.0100    -0.1740 c3         1 4QM      -0.085100
     22 C22         -5.3240    -0.0240     0.6850 c3         1 4QM      -0.076400
     23 C23         -6.7150     0.4240     0.2440 c3         1 4QM      -0.075400
     24 C24         -7.8190    -0.2780     1.0240 c3         1 4QM      -0.089100
     25 O2           5.3270     0.8250     2.4140 oh         1 4QM      -0.595800
     26 O3           1.5820    -2.2270     1.2270 oh         1 4QM      -0.592800
     27 O4          -0.8120     1.7560     1.1020 oh         1 4QM      -0.593800
     28 H1           4.5120     1.7180    -1.4350 hc         1 4QM       0.038200
     29 H2           3.0230     2.5730    -1.1490 hc         1 4QM       0.038200
     30 H3           0.4430     1.4900    -1.9920 hc         1 4QM       0.040200
     31 H4           1.0000     2.4760    -0.6730 hc         1 4QM       0.040200
     32 H5          -1.4240     2.2970    -0.7910 h1         1 4QM       0.028700
     33 H6          -0.4750    -0.7460     1.0660 hc         1 4QM       0.082700
     34 H7          -1.4460    -2.6360    -1.0960 hc         1 4QM       0.039700
     35 H8          -1.1530    -2.9970     0.5930 hc         1 4QM       0.039700
     36 H9          -3.6200    -2.0490    -0.5080 hc         1 4QM       0.038700
     37 H10         -3.2500    -2.1000     1.1980 hc         1 4QM       0.038700
     38 H11         -2.6750     0.1610     1.3050 hc         1 4QM       0.068700
     39 H12         -0.9330    -0.0480    -2.6370 hc         1 4QM       0.032700
     40 H13         -2.4310    -0.8740    -2.2550 hc         1 4QM       0.032700
     41 H14         -2.4010     0.8730    -2.3970 hc         1 4QM       0.032700
     42 H15          3.7330     0.1070    -3.0670 hc         1 4QM       0.032367
     43 H16          2.0790    -0.4760    -2.9810 hc         1 4QM       0.032367
     44 H17          2.4000     1.2460    -3.0700 hc         1 4QM       0.032367
     45 H18          4.5730     2.8460     0.7410 hc         1 4QM       0.046700
     46 H19          3.1660     1.9540     1.3020 hc         1 4QM       0.046700
     47 H20          5.8030     0.7280     0.4000 h1         1 4QM       0.022700
     48 H21          4.8180    -1.4070     1.1570 hc         1 4QM       0.060700
     49 H22          3.3230    -0.5850     1.5670 hc         1 4QM       0.060700
     50 H23          4.6210    -0.7940    -1.1820 hc         1 4QM       0.039700
     51 H24          2.9270    -2.3220    -1.8430 hc         1 4QM       0.043200
     52 H25          3.6120    -2.9230    -0.3590 hc         1 4QM       0.043200
     53 H26          1.1190    -3.0910    -0.5840 h1         1 4QM       0.026700
     54 H27          0.6150    -1.1460    -1.7280 hc         1 4QM       0.044700
     55 H28          1.5990     0.4920     0.6400 hc         1 4QM       0.071700
     56 H29         -4.3660     0.1520    -1.2140 hc         1 4QM       0.040700
     57 H30         -3.8480     2.3860     0.8140 hc         1 4QM       0.031367
     58 H31         -3.4040     2.4080    -0.8880 hc         1 4QM       0.031367
     59 H32         -5.0890     2.4430    -0.4350 hc         1 4QM       0.031367
     60 H33         -5.3180    -1.1170     0.6900 hc         1 4QM       0.039200
     61 H34         -5.1540     0.2820     1.7240 hc         1 4QM       0.039200
     62 H35         -6.8280     1.5040     0.3630 hc         1 4QM       0.036200
     63 H36         -6.8350     0.2210    -0.8250 hc         1 4QM       0.036200
     64 H37         -7.7330    -0.0800     2.0940 hc         1 4QM       0.030367
     65 H38         -8.8080     0.0530     0.7060 hc         1 4QM       0.030367
     66 H39         -7.7710    -1.3600     0.8870 hc         1 4QM       0.030367
     67 H40          5.8130     1.6480     2.5260 ho         1 4QM       0.400000
     68 H41          2.1890    -2.9200     1.5050 ho         1 4QM       0.399000
     69 H42         -0.2710     2.5390     1.2400 ho         1 4QM       0.399000
@<TRIPOS>BOND
     1     1     2 1   
     2     1    12 1   
     3     1    28 1   
     4     1    29 1   
     5     2    11 1   
     6     2    15 1   
     7     2    19 1   
     8     3     4 1   
     9     3    19 1   
    10     3    30 1   
    11     3    31 1   
    12     4     5 1   
    13     4    27 1   
    14     4    32 1   
    15     5     6 1   
    16     5     9 1   
    17     5    10 1   
    18     6     7 1   
    19     6    18 1   
    20     6    33 1   
    21     7     8 1   
    22     7    34 1   
    23     7    35 1   
    24     8     9 1   
    25     8    36 1   
    26     8    37 1   
    27     9    20 1   
    28     9    38 1   
    29    10    39 1   
    30    10    40 1   
    31    10    41 1   
    32    11    42 1   
    33    11    43 1   
    34    11    44 1   
    35    12    13 1   
    36    12    45 1   
    37    12    46 1   
    38    13    14 1   
    39    13    25 1   
    40    13    47 1   
    41    14    15 1   
    42    14    48 1   
    43    14    49 1   
    44    15    16 1   
    45    15    50 1   
    46    16    17 1   
    47    16    51 1   
    48    16    52 1   
    49    17    18 1   
    50    17    26 1   
    51    17    53 1   
    52    18    19 1   
    53    18    54 1   
    54    19    55 1   
    55    20    21 1   
    56    20    22 1   
    57    20    56 1   
    58    21    57 1   
    59    21    58 1   
    60    21    59 1   
    61    22    23 1   
    62    22    60 1   
    63    22    61 1   
    64    23    24 1   
    65    23    62 1   
    66    23    63 1   
    67    24    64 1   
    68    24    65 1   
    69    24    66 1   
    70    25    67 1   
    71    26    68 1   
    72    27    69 1   
@<TRIPOS>SUBSTRUCTURE
     1 4QM         1 TEMP              0 ****  ****    0 ROOT
