@<TRIPOS>MOLECULE
4QO
   54    55     1     0     0
SMALL
No Charge or Current Charge


@<TRIPOS>ATOM
      1 C18         -2.3870     1.4150    -0.7810 ca         1 4QO      -0.104000
      2 C17         -1.5890     0.3470    -0.3150 ca         1 4QO      -0.005000
      3 C19         -3.7660     1.2320    -0.9800 ca         1 4QO      -0.083000
      4 C11          3.0720     3.0730     1.1020 c3         1 4QO      -0.103100
      5 C12          3.4280     2.5650    -1.3500 c3         1 4QO      -0.103100
      6 C1           4.5960    -0.1370    -0.5000 ca         1 4QO      -0.097000
      7 C2           4.3870     0.9770     0.3500 ca         1 4QO      -0.104300
      8 C3           5.2680     1.1500     1.4460 ca         1 4QO      -0.097000
      9 C4           6.3170     0.2440     1.6720 ca         1 4QO      -0.113000
     10 C5           6.5070    -0.8500     0.8160 ca         1 4QO      -0.095000
     11 C6           5.6470    -1.0490    -0.2790 ca         1 4QO      -0.049800
     12 C7           5.8440    -2.2160    -1.1920 ce         1 4QO      -0.065400
     13 C8           6.1780    -3.5560    -0.5590 c3         1 4QO      -0.054900
     14 C9           5.6720    -2.1050    -2.5270 c2         1 4QO      -0.306000
     15 C10          3.2080     1.9370     0.0520 c3         1 4QO       0.199700
     16 C14          0.7070     1.4950    -0.2450 c          1 4QO       0.659100
     17 O1           0.4070     2.6220    -0.6050 o          1 4QO      -0.617100
     18 N2          -0.1860     0.4450    -0.1030 ns         1 4QO      -0.171000
     19 C22         -2.2020    -0.8900    -0.0430 ca         1 4QO      -0.132000
     20 C21         -3.5920    -1.0730    -0.2090 ca         1 4QO      -0.107600
     21 C23         -4.1950    -2.4180     0.1070 c          1 4QO       0.621700
     22 O2          -3.8010    -3.4270    -0.4680 o          1 4QO      -0.586100
     23 N3          -5.2520    -2.4790     1.0450 n          1 4QO      -0.398800
     24 C26         -5.9590    -3.7560     1.2830 c3         1 4QO       0.086300
     25 C27         -5.4460    -1.4090     2.0530 c3         1 4QO       0.086300
     26 C20         -4.3710    -0.0040    -0.7030 ca         1 4QO       0.112000
     27 Cl1         -6.0850    -0.1930    -1.0740 cl         1 4QO      -0.195000
     28 N1           1.9930     1.1120     0.0760 ns         1 4QO      -0.519900
     29 H1          -1.9590     2.3850    -1.0100 ha         1 4QO       0.145000
     30 H2          -4.3680     2.0520    -1.3650 ha         1 4QO       0.133000
     31 H3           3.9790     3.6870     1.1330 hc         1 4QO       0.050033
     32 H4           2.2390     3.7430     0.8640 hc         1 4QO       0.050033
     33 H5           2.8910     2.6620     2.1030 hc         1 4QO       0.050033
     34 H6           3.3590     1.8130    -2.1430 hc         1 4QO       0.050033
     35 H7           2.6910     3.3470    -1.5650 hc         1 4QO       0.050033
     36 H8           4.4210     3.0270    -1.4070 hc         1 4QO       0.050033
     37 H10          5.1620     1.9800     2.1380 ha         1 4QO       0.117000
     38 H11          6.9870     0.3910     2.5170 ha         1 4QO       0.115000
     39 H12          7.3290    -1.5380     1.0020 ha         1 4QO       0.116000
     40 H13          5.7510    -3.6430     0.4470 hc         1 4QO       0.042033
     41 H14          5.7840    -4.3910    -1.1500 hc         1 4QO       0.042033
     42 H15          7.2630    -3.6930    -0.4750 hc         1 4QO       0.042033
     43 H16          5.4200    -1.1560    -3.0010 ha         1 4QO       0.167500
     44 H17          5.7910    -2.9600    -3.1930 ha         1 4QO       0.167500
     45 H18          0.2350    -0.4190     0.2090 hn         1 4QO       0.147000
     46 H19         -1.5970    -1.7200     0.3180 ha         1 4QO       0.122000
     47 H20         -5.3040    -4.4450     1.8310 h1         1 4QO       0.043367
     48 H21         -6.8700    -3.5820     1.8700 h1         1 4QO       0.043367
     49 H22         -6.2420    -4.2100     0.3250 h1         1 4QO       0.043367
     50 H23         -4.5110    -0.8600     2.2210 h1         1 4QO       0.043367
     51 H24         -6.2200    -0.7110     1.7130 h1         1 4QO       0.043367
     52 H25         -5.7620    -1.8460     3.0090 h1         1 4QO       0.043367
     53 H26          2.1080     0.1520     0.3700 hn         1 4QO       0.309500
     54 H9           3.9240    -0.3050    -1.3370 ha         1 4QO       0.119000
@<TRIPOS>BOND
     1     1     2 ar  
     2     1     3 ar  
     3     1    29 1   
     4     2    18 1   
     5     2    19 ar  
     6     3    26 ar  
     7     3    30 1   
     8     4    15 1   
     9     4    31 1   
    10     4    32 1   
    11     4    33 1   
    12     5    15 1   
    13     5    34 1   
    14     5    35 1   
    15     5    36 1   
    16     6     7 ar  
    17     6    11 ar  
    18     6    54 1   
    19     7     8 ar  
    20     7    15 1   
    21     8     9 ar  
    22     8    37 1   
    23     9    10 ar  
    24     9    38 1   
    25    10    11 ar  
    26    10    39 1   
    27    11    12 1   
    28    12    13 1   
    29    12    14 2   
    30    13    40 1   
    31    13    41 1   
    32    13    42 1   
    33    14    43 1   
    34    14    44 1   
    35    15    28 1   
    36    16    17 2   
    37    16    18 1   
    38    16    28 1   
    39    18    45 1   
    40    19    20 ar  
    41    19    46 1   
    42    20    21 1   
    43    20    26 ar  
    44    21    22 2   
    45    21    23 1   
    46    23    24 1   
    47    23    25 1   
    48    24    47 1   
    49    24    48 1   
    50    24    49 1   
    51    25    50 1   
    52    25    51 1   
    53    25    52 1   
    54    26    27 1   
    55    28    53 1   
@<TRIPOS>SUBSTRUCTURE
     1 4QO         1 TEMP              0 ****  ****    0 ROOT
