@<TRIPOS>MOLECULE
4QO
   54    55     1     0     0
SMALL
abcg2


@<TRIPOS>ATOM
      1 C18         -2.3220     1.7140     0.1190 ca         1 4QO      -0.104000
      2 C17         -1.5930     0.5240     0.0830 ca         1 4QO      -0.005000
      3 C19         -3.7000     1.6880    -0.0120 ca         1 4QO      -0.083000
      4 C11          3.1150     3.1700     0.6910 c3         1 4QO      -0.103100
      5 C12          3.2570     2.2690    -1.6450 c3         1 4QO      -0.103100
      6 C1           4.4250    -0.2740    -0.3480 ca         1 4QO      -0.097000
      7 C2           4.3640     1.0190     0.1690 ca         1 4QO      -0.104300
      8 C3           5.4310     1.4740     0.9370 ca         1 4QO      -0.097000
      9 C4           6.5200     0.6490     1.1810 ca         1 4QO      -0.113000
     10 C5           6.5640    -0.6350     0.6650 ca         1 4QO      -0.095000
     11 C6           5.5160    -1.1140    -0.1240 ca         1 4QO      -0.049800
     12 C7           5.5560    -2.4790    -0.6990 ce         1 4QO      -0.065400
     13 C8           6.3240    -3.5250     0.0580 c3         1 4QO      -0.054900
     14 C9           4.9460    -2.7720    -1.8490 c2         1 4QO      -0.306000
     15 C10          3.1570     1.8980    -0.1580 c3         1 4QO       0.199700
     16 C14          0.6960     1.4090    -0.1810 c          1 4QO       0.659100
     17 O1           0.3590     2.4180    -0.7780 o          1 4QO      -0.617100
     18 N2          -0.2140     0.4670     0.2580 ns         1 4QO      -0.171000
     19 C22         -2.2790    -0.6780    -0.0860 ca         1 4QO      -0.132000
     20 C21         -3.6610    -0.7130    -0.1870 ca         1 4QO      -0.107600
     21 C23         -4.3430    -2.0230    -0.4650 c          1 4QO       0.621700
     22 O2          -4.2660    -2.4950    -1.5910 o          1 4QO      -0.586100
     23 N3          -4.9920    -2.6030     0.5540 n          1 4QO      -0.398800
     24 C26         -5.7470    -3.8210     0.3500 c3         1 4QO       0.086300
     25 C27         -5.0550    -2.0680     1.8970 c3         1 4QO       0.086300
     26 C20         -4.3650     0.4820    -0.1610 ca         1 4QO       0.112000
     27 CL1         -6.0940     0.4670    -0.2930 cl         1 4QO      -0.195000
     28 N1           1.9760     1.0720     0.1110 ns         1 4QO      -0.519900
     29 H1          -1.8320     2.6630     0.2680 ha         1 4QO       0.145000
     30 H2          -4.2570     2.6150     0.0180 ha         1 4QO       0.133000
     31 H3           3.9740     3.8120     0.4960 hc         1 4QO       0.050033
     32 H4           2.2210     3.7430     0.4550 hc         1 4QO       0.050033
     33 H5           3.0980     2.9350     1.7560 hc         1 4QO       0.050033
     34 H6           3.1840     1.3830    -2.2760 hc         1 4QO       0.050033
     35 H7           2.4810     2.9700    -1.9400 hc         1 4QO       0.050033
     36 H8           4.2240     2.7350    -1.8350 hc         1 4QO       0.050033
     37 H10          5.4240     2.4680     1.3630 ha         1 4QO       0.117000
     38 H11          7.3410     1.0120     1.7850 ha         1 4QO       0.115000
     39 H12          7.4240    -1.2580     0.8720 ha         1 4QO       0.116000
     40 H13          6.0120    -3.5700     1.1030 hc         1 4QO       0.042033
     41 H14          6.1810    -4.5100    -0.3840 hc         1 4QO       0.042033
     42 H15          7.3960    -3.3180     0.0550 hc         1 4QO       0.042033
     43 H16          4.4250    -2.0300    -2.4390 ha         1 4QO       0.167500
     44 H17          4.9630    -3.7780    -2.2480 ha         1 4QO       0.167500
     45 H18          0.1480    -0.4390     0.5140 hn         1 4QO       0.147000
     46 H19         -1.7220    -1.6070    -0.1240 ha         1 4QO       0.122000
     47 H20         -5.3240    -4.6350     0.9410 h1         1 4QO       0.043367
     48 H21         -6.7820    -3.6730     0.6650 h1         1 4QO       0.043367
     49 H22         -5.7380    -4.1070    -0.6960 h1         1 4QO       0.043367
     50 H23         -4.3330    -1.2710     2.0460 h1         1 4QO       0.043367
     51 H24         -6.0520    -1.6830     2.1170 h1         1 4QO       0.043367
     52 H25         -4.8290    -2.8590     2.6120 h1         1 4QO       0.043367
     53 H26          2.1110     0.3440     0.7960 hn         1 4QO       0.309500
     54 H9           3.5880    -0.6500    -0.9240 ha         1 4QO       0.119000
@<TRIPOS>BOND
     1     1     2 ar  
     2     1     3 ar  
     3     1    29 1   
     4     2    18 1   
     5     2    19 ar  
     6     3    26 ar  
     7     3    30 1   
     8     4    15 1   
     9     4    31 1   
    10     4    32 1   
    11     4    33 1   
    12     5    15 1   
    13     5    34 1   
    14     5    35 1   
    15     5    36 1   
    16     6     7 ar  
    17     6    11 ar  
    18     6    54 1   
    19     7     8 ar  
    20     7    15 1   
    21     8     9 ar  
    22     8    37 1   
    23     9    10 ar  
    24     9    38 1   
    25    10    11 ar  
    26    10    39 1   
    27    11    12 1   
    28    12    13 1   
    29    12    14 2   
    30    13    40 1   
    31    13    41 1   
    32    13    42 1   
    33    14    43 1   
    34    14    44 1   
    35    15    28 1   
    36    16    17 2   
    37    16    18 1   
    38    16    28 1   
    39    18    45 1   
    40    19    20 ar  
    41    19    46 1   
    42    20    21 1   
    43    20    26 ar  
    44    21    22 2   
    45    21    23 1   
    46    23    24 1   
    47    23    25 1   
    48    24    47 1   
    49    24    48 1   
    50    24    49 1   
    51    25    50 1   
    52    25    51 1   
    53    25    52 1   
    54    26    27 1   
    55    28    53 1   
@<TRIPOS>SUBSTRUCTURE
     1 4QO         1 TEMP              0 ****  ****    0 ROOT
