@<TRIPOS>MOLECULE
4QP
   40    40     1     0     0
SMALL
abcg2


@<TRIPOS>ATOM
      1 N12         -1.7880    -2.3930     0.1480 n8         1 4QP      -0.970200
      2 C13         -3.2400    -0.4060    -0.3460 ca         1 4QP      -0.032300
      3 C15         -4.9560     1.0890    -1.1770 ca         1 4QP      -0.123500
      4 C17         -5.1150     0.2200     1.0520 ca         1 4QP      -0.123500
      5 C02          4.1030     3.0450    -0.2290 c3         1 4QP      -0.079600
      6 C04          4.0820     1.3990     1.6630 c3         1 4QP      -0.079600
      7 C05          2.5850     1.0590    -0.3610 c3         1 4QP      -0.047400
      8 C06          2.2540    -0.3860     0.0090 c3         1 4QP      -0.145700
      9 P08         -0.5560     0.0210    -0.0190 p5         1 4QP       1.382000
     10 O09         -0.7400     1.3350    -0.7500 o          1 4QP      -0.828000
     11 O10         -0.5540     0.0090     1.5000 o          1 4QP      -0.828000
     12 C11         -1.9350    -1.1290    -0.5500 c3         1 4QP      -0.137200
     13 C14         -3.7700     0.3940    -1.3590 ca         1 4QP      -0.099000
     14 C16         -5.6360     1.0060     0.0330 ca         1 4QP      -0.156000
     15 C18         -3.9280    -0.4770     0.8640 ca         1 4QP      -0.099000
     16 C19          3.3800    -1.3520    -0.4040 c          1 4QP       0.716000
     17 O20          3.7340    -1.3210    -1.6030 o          1 4QP      -0.767500
     18 O21          3.8420    -2.1120     0.4740 o          1 4QP      -0.767500
     19 H1          -1.6540    -2.2230     1.1370 hn         1 4QP       0.380500
     20 H2          -2.6260    -2.9540     0.0570 hn         1 4QP       0.380500
     21 H4          -5.3540     1.6970    -1.9800 ha         1 4QP       0.082500
     22 H5          -5.6350     0.1490     2.0000 ha         1 4QP       0.082500
     23 H6           3.3490     3.6670     0.2610 hc         1 4QP       0.015200
     24 H7           5.0840     3.4240     0.0650 hc         1 4QP       0.015200
     25 H8           4.0010     3.1910    -1.3060 hc         1 4QP       0.015200
     26 H9           4.7260     1.0080    -0.3370 hc         1 4QP       0.059700
     27 H10          4.1100     0.3460     1.9440 hc         1 4QP       0.015200
     28 H11          5.0040     1.8600     2.0220 hc         1 4QP       0.015200
     29 H12          3.2490     1.8650     2.1980 hc         1 4QP       0.015200
     30 H13          1.7940     1.7120     0.0180 hc         1 4QP       0.033200
     31 H14          2.5640     1.1600    -1.4500 hc         1 4QP       0.033200
     32 H15          2.1260    -0.4490     1.0930 hc         1 4QP       0.045700
     33 H16          0.9940    -0.7630    -1.7170 hc         1 4QP       0.049200
     34 H17          0.7960    -1.9210    -0.4130 hc         1 4QP       0.049200
     35 H19         -1.8040    -1.3030    -1.6250 h1         1 4QP       0.062700
     36 H20         -3.2500     0.4630    -2.3070 ha         1 4QP       0.115000
     37 H21         -6.5630     1.5450     0.1780 ha         1 4QP       0.077000
     38 H22         -3.5420    -1.0920     1.6680 ha         1 4QP       0.115000
     39 C07          0.9390    -0.8570    -0.6280 c3         1 4QP      -0.413400
     40 C03          3.9290     1.5780     0.1550 c3         1 4QP      -0.056700
@<TRIPOS>BOND
     1     1    12 1   
     2     1    19 1   
     3     1    20 1   
     4     2    12 1   
     5     2    13 ar  
     6     2    15 ar  
     7     3    13 ar  
     8     3    14 ar  
     9     3    21 1   
    10     4    14 ar  
    11     4    15 ar  
    12     4    22 1   
    13     5    23 1   
    14     5    24 1   
    15     5    25 1   
    16     5    40 1   
    17     6    27 1   
    18     6    28 1   
    19     6    29 1   
    20     6    40 1   
    21     7     8 1   
    22     7    30 1   
    23     7    31 1   
    24     7    40 1   
    25     8    16 1   
    26     8    32 1   
    27     8    39 1   
    28     9    10 1   
    29     9    11 1   
    30     9    12 1   
    31     9    39 1   
    32    12    35 1   
    33    13    36 1   
    34    14    37 1   
    35    15    38 1   
    36    16    17 1   
    37    16    18 1   
    38    26    40 1   
    39    33    39 1   
    40    34    39 1   
@<TRIPOS>SUBSTRUCTURE
     1 4QP         1 TEMP              0 ****  ****    0 ROOT
