@<TRIPOS>MOLECULE
4QP
   40    40     1     0     0
SMALL
No Charge or Current Charge


@<TRIPOS>ATOM
      1 N12         -2.1340    -2.5530    -0.0570 n8         1 4QP      -0.970200
      2 C13         -3.3450    -0.4020    -0.2980 ca         1 4QP      -0.032300
      3 C15         -5.3240     0.6320    -1.2900 ca         1 4QP      -0.123500
      4 C17         -5.1310     0.4650     1.1270 ca         1 4QP      -0.123500
      5 C02          4.4110     3.0550    -0.1950 c3         1 4QP      -0.079600
      6 C04          4.2340     1.4580     1.7760 c3         1 4QP      -0.079600
      7 C05          2.7240     1.1400    -0.3020 c3         1 4QP      -0.047400
      8 C06          2.3580    -0.3570    -0.0620 c3         1 4QP      -0.145700
      9 P08         -0.5580     0.0310     0.1590 p5         1 4QP       1.382000
     10 O09         -0.7310     1.4360    -0.3360 o          1 4QP      -0.828000
     11 O10         -0.4320    -0.0430     1.6520 o          1 4QP      -0.828000
     12 C11         -1.9900    -1.0910    -0.4580 c3         1 4QP      -0.137200
     13 C14         -4.0770     0.0000    -1.4340 ca         1 4QP      -0.099000
     14 C16         -5.8510     0.8650    -0.0100 ca         1 4QP      -0.156000
     15 C18         -3.8840    -0.1670     0.9850 ca         1 4QP      -0.099000
     16 C19          3.4660    -1.3140    -0.6000 c          1 4QP       0.716000
     17 O20          3.7180    -1.3130    -1.7970 o          1 4QP      -0.767500
     18 O21          4.0350    -2.0470     0.1960 o          1 4QP      -0.767500
     19 H1          -2.3490    -2.6170     0.9470 hn         1 4QP       0.380500
     20 H2          -2.9620    -2.9580    -0.5100 hn         1 4QP       0.380500
     21 H4          -5.8820     0.9400    -2.1720 ha         1 4QP       0.082500
     22 H5          -5.5390     0.6440     2.1200 ha         1 4QP       0.082500
     23 H6           3.6770     3.7520     0.2290 hc         1 4QP       0.015200
     24 H7           5.4090     3.3610     0.1410 hc         1 4QP       0.015200
     25 H8           4.3810     3.1480    -1.2870 hc         1 4QP       0.015200
     26 H9           4.8820     0.9720    -0.2130 hc         1 4QP       0.059700
     27 H10          4.1590     0.4100     2.0840 hc         1 4QP       0.015200
     28 H11          5.2050     1.8330     2.1210 hc         1 4QP       0.015200
     29 H12          3.4470     2.0260     2.2880 hc         1 4QP       0.015200
     30 H13          1.9530     1.7760     0.1490 hc         1 4QP       0.033200
     31 H14          2.6890     1.3350    -1.3810 hc         1 4QP       0.033200
     32 H15          2.3030    -0.5160     1.0220 hc         1 4QP       0.045700
     33 H16          0.8870    -0.4830    -1.6990 hc         1 4QP       0.049200
     34 H17          0.7880    -1.8010    -0.5370 hc         1 4QP       0.049200
     35 H19         -1.7550    -1.0980    -1.5310 h1         1 4QP       0.062700
     36 H20         -3.6790    -0.1760    -2.4310 ha         1 4QP       0.115000
     37 H21         -6.8160     1.3540     0.1010 ha         1 4QP       0.077000
     38 H22         -3.3350    -0.4740     1.8720 ha         1 4QP       0.115000
     39 C07          0.9390    -0.7210    -0.6310 c3         1 4QP      -0.413400
     40 C03          4.1080     1.6030     0.2400 c3         1 4QP      -0.056700
@<TRIPOS>BOND
     1     1    12 1   
     2     1    19 1   
     3     1    20 1   
     4     2    12 1   
     5     2    13 ar  
     6     2    15 ar  
     7     3    13 ar  
     8     3    14 ar  
     9     3    21 1   
    10     4    14 ar  
    11     4    15 ar  
    12     4    22 1   
    13     5    23 1   
    14     5    24 1   
    15     5    25 1   
    16     5    40 1   
    17     6    27 1   
    18     6    28 1   
    19     6    29 1   
    20     6    40 1   
    21     7     8 1   
    22     7    30 1   
    23     7    31 1   
    24     7    40 1   
    25     8    16 1   
    26     8    32 1   
    27     8    39 1   
    28     9    10 1   
    29     9    11 1   
    30     9    12 1   
    31     9    39 1   
    32    12    35 1   
    33    13    36 1   
    34    14    37 1   
    35    15    38 1   
    36    16    17 1   
    37    16    18 1   
    38    26    40 1   
    39    33    39 1   
    40    34    39 1   
@<TRIPOS>SUBSTRUCTURE
     1 4QP         1 TEMP              0 ****  ****    0 ROOT
