@<TRIPOS>MOLECULE
4QQ
   58    60     1     0     0
SMALL
bcc


@<TRIPOS>ATOM
      1 S           -0.1330     2.0390    -0.0690 sy         1 4QQ       1.291200
      2 O1S          0.6600     1.7490    -1.2520 o          1 4QQ      -0.604300
      3 O2S         -0.0450     3.3460     0.5630 o          1 4QQ      -0.604300
      4 C1          -1.8260     1.7130    -0.4690 ca         1 4QQ      -0.318500
      5 C2          -2.8110     2.0430     0.4560 ca         1 4QQ      -0.022500
      6 C3          -4.1310     1.7580     0.1640 ca         1 4QQ      -0.152500
      7 C4          -4.4890     1.1510    -1.0410 ca         1 4QQ      -0.022300
      8 C5          -3.4850     0.8380    -1.9520 ca         1 4QQ      -0.152500
      9 C6          -2.1540     1.1120    -1.6740 ca         1 4QQ      -0.022500
     10 C           -5.9270     0.8640    -1.3480 c3         1 4QQ      -0.058800
     11 N1          -1.7350    -2.0650     0.8900 n          1 4QQ      -0.460800
     12 C21         -3.0160    -2.5590     1.3770 c6         1 4QQ       0.094500
     13 C31         -4.0580    -2.5140     0.2680 c6         1 4QQ      -0.099400
     14 C41         -3.5800    -3.2860    -0.9580 c6         1 4QQ      -0.073400
     15 C51         -2.2000    -2.8080    -1.3970 c6         1 4QQ      -0.099400
     16 C61         -1.2180    -2.8330    -0.2330 c6         1 4QQ       0.094500
     17 N            0.3070     0.9600     1.0960 n7         1 4QQ      -0.792100
     18 CA           0.1480    -0.4590     0.8430 c3         1 4QQ       0.137500
     19 C7          -1.1980    -0.9470     1.4010 c          1 4QQ       0.643100
     20 O           -1.6930    -0.3300     2.3360 o          1 4QQ      -0.618100
     21 CB           1.2830    -1.2320     1.5380 c3         1 4QQ      -0.021100
     22 CG           2.6280    -0.8750     0.9790 ca         1 4QQ      -0.065300
     23 CD1          3.4410     0.0740     1.5910 ca         1 4QQ      -0.123500
     24 CD2          3.0830    -1.4800    -0.1890 ca         1 4QQ      -0.123500
     25 CE1          4.6730     0.4070     1.0540 ca         1 4QQ      -0.092000
     26 CE2          4.3100    -1.1410    -0.7380 ca         1 4QQ      -0.092000
     27 CZ           5.1200    -0.1880    -0.1240 ca         1 4QQ      -0.138900
     28 CF           6.4470     0.1930    -0.6800 ce         1 4QQ       0.661800
     29 NG1          7.3360     0.6540     0.1130 n2         1 4QQ      -0.829100
     30 NG2          6.6070    -0.0370    -2.0170 nv         1 4QQ      -0.966800
     31 H3          -2.5570     2.5140     1.3960 ha         1 4QQ       0.153500
     32 H4          -4.8980     2.0090     0.8860 ha         1 4QQ       0.135500
     33 H5          -3.7430     0.3700    -2.8940 ha         1 4QQ       0.135500
     34 H6          -1.3900     0.8600    -2.3970 ha         1 4QQ       0.153500
     35 H7          -6.4370     1.7700    -1.6840 hc         1 4QQ       0.048700
     36 H8          -6.0290     0.1190    -2.1350 hc         1 4QQ       0.048700
     37 H9          -6.4580     0.5050    -0.4670 hc         1 4QQ       0.048700
     38 H10         -2.8790    -3.5900     1.7220 h1         1 4QQ       0.057450
     39 H11         -3.3270    -1.9680     2.2340 h1         1 4QQ       0.057450
     40 H12         -4.9970    -2.9270     0.6410 hc         1 4QQ       0.052450
     41 H13         -4.2480    -1.4700     0.0020 hc         1 4QQ       0.052450
     42 H14         -3.5320    -4.3530    -0.7150 hc         1 4QQ       0.043200
     43 H15         -4.2940    -3.1830    -1.7760 hc         1 4QQ       0.043200
     44 H16         -1.8120    -3.4330    -2.2040 hc         1 4QQ       0.052450
     45 H17         -2.2640    -1.7870    -1.7820 hc         1 4QQ       0.052450
     46 H18         -0.2450    -2.4650    -0.5500 h1         1 4QQ       0.057450
     47 H19         -1.0610    -3.8620     0.1040 h1         1 4QQ       0.057450
     48 H20          0.2300    -0.6160    -0.2330 h1         1 4QQ       0.085700
     49 H21          1.2410    -1.0240     2.6090 hc         1 4QQ       0.059200
     50 H22          1.1050    -2.3030     1.4200 hc         1 4QQ       0.059200
     51 H23          3.1100     0.5550     2.5040 ha         1 4QQ       0.129000
     52 H24          2.4740    -2.2330    -0.6760 ha         1 4QQ       0.129000
     53 H25          5.2960     1.1420     1.5440 ha         1 4QQ       0.144500
     54 H26          4.6360    -1.6490    -1.6370 ha         1 4QQ       0.144500
     55 HG12         8.1820     0.9060    -0.3910 hn         1 4QQ       0.370400
     56 HG22         5.7910    -0.0210    -2.6070 hn         1 4QQ       0.405800
     57 HG21         7.4260     0.3490    -2.4580 hn         1 4QQ       0.405800
     58 H           -0.0220     1.2360     2.0170 hn         1 4QQ       0.447800
@<TRIPOS>BOND
     1     1     2 2   
     2     1     3 2   
     3     1     4 1   
     4     1    17 1   
     5     4     5 ar  
     6     4     9 ar  
     7     5     6 ar  
     8     5    31 1   
     9     6     7 ar  
    10     6    32 1   
    11     7     8 ar  
    12     7    10 1   
    13     8     9 ar  
    14     8    33 1   
    15     9    34 1   
    16    10    35 1   
    17    10    36 1   
    18    10    37 1   
    19    11    12 1   
    20    11    16 1   
    21    11    19 1   
    22    12    13 1   
    23    12    38 1   
    24    12    39 1   
    25    13    14 1   
    26    13    40 1   
    27    13    41 1   
    28    14    15 1   
    29    14    42 1   
    30    14    43 1   
    31    15    16 1   
    32    15    44 1   
    33    15    45 1   
    34    16    46 1   
    35    16    47 1   
    36    17    18 1   
    37    17    58 1   
    38    18    19 1   
    39    18    21 1   
    40    18    48 1   
    41    19    20 2   
    42    21    22 1   
    43    21    49 1   
    44    21    50 1   
    45    22    23 ar  
    46    22    24 ar  
    47    23    25 ar  
    48    23    51 1   
    49    24    26 ar  
    50    24    52 1   
    51    25    27 ar  
    52    25    53 1   
    53    26    27 ar  
    54    26    54 1   
    55    27    28 1   
    56    28    29 2   
    57    28    30 1   
    58    29    55 1   
    59    30    56 1   
    60    30    57 1   
@<TRIPOS>SUBSTRUCTURE
     1 4QQ         1 TEMP              0 ****  ****    0 ROOT
