@<TRIPOS>MOLECULE
4QQ
   58    60     1     0     0
SMALL
No Charge or Current Charge


@<TRIPOS>ATOM
      1 S           -0.5010     2.5300     1.3430 sy         1 4QQ       1.149600
      2 O1S          0.4490     3.4350     0.6920 o          1 4QQ      -0.533500
      3 O2S         -1.2460     2.9080     2.5440 o          1 4QQ      -0.533500
      4 C1          -1.6470     1.8680     0.1190 ca         1 4QQ      -0.318500
      5 C2          -2.9810     1.5790     0.4750 ca         1 4QQ      -0.004500
      6 C3          -3.8650     1.0550    -0.4830 ca         1 4QQ      -0.134500
      7 C4          -3.4320     0.8140    -1.7990 ca         1 4QQ      -0.022300
      8 C5          -2.1060     1.1200    -2.1560 ca         1 4QQ      -0.134500
      9 C6          -1.2170     1.6530    -1.2060 ca         1 4QQ      -0.004500
     10 C           -4.3920     0.2360    -2.8260 c3         1 4QQ      -0.058800
     11 N1          -2.1350    -1.5460     1.0960 n          1 4QQ      -0.393800
     12 C21         -3.4450    -2.0050     1.6530 c6         1 4QQ       0.094500
     13 C31         -4.4520    -2.5340     0.6040 c6         1 4QQ      -0.099400
     14 C41         -3.8070    -3.5780    -0.3210 c6         1 4QQ      -0.073400
     15 C51         -2.5790    -2.9510    -1.0020 c6         1 4QQ      -0.099400
     16 C61         -1.5570    -2.4320     0.0340 c6         1 4QQ       0.094500
     17 N            0.3990     1.1970     1.8050 n7         1 4QQ      -0.847300
     18 CA           0.0520    -0.1830     1.3280 c3         1 4QQ       0.137500
     19 C7          -1.2970    -0.7400     1.9130 c          1 4QQ       0.576100
     20 O           -1.6560    -0.4170     3.0420 o          1 4QQ      -0.618100
     21 CB           1.2190    -1.1450     1.6670 c3         1 4QQ      -0.021100
     22 CG           2.4830    -0.8470     0.8670 ca         1 4QQ      -0.065300
     23 CD1          3.5630    -0.1700     1.4590 ca         1 4QQ      -0.105500
     24 CD2          2.5860    -1.2590    -0.4740 ca         1 4QQ      -0.105500
     25 CE1          4.7270     0.1010     0.7200 ca         1 4QQ      -0.074000
     26 CE2          3.7490    -0.9890    -1.2170 ca         1 4QQ      -0.074000
     27 CZ           4.8330    -0.2870    -0.6360 ca         1 4QQ      -0.138900
     28 CF           6.0940    -0.0210    -1.4050 ce         1 4QQ       0.661800
     29 NG1          7.2000     0.2680    -0.8540 n2         1 4QQ      -0.829100
     30 NG2          6.0260     0.0120    -2.7540 nv         1 4QQ      -1.077200
     31 H3          -3.3360     1.7470     1.4900 ha         1 4QQ       0.135500
     32 H4          -4.8910     0.8330    -0.1980 ha         1 4QQ       0.117500
     33 H5          -1.7610     0.9470    -3.1730 ha         1 4QQ       0.117500
     34 H6          -0.1930     1.8820    -1.4990 ha         1 4QQ       0.135500
     35 H7          -4.9670     1.0320    -3.3140 hc         1 4QQ       0.048700
     36 H8          -3.8570    -0.3180    -3.6070 hc         1 4QQ       0.048700
     37 H9          -5.1030    -0.4560    -2.3610 hc         1 4QQ       0.048700
     38 H10         -3.2470    -2.8010     2.3860 h1         1 4QQ       0.057450
     39 H11         -3.9220    -1.1780     2.1980 h1         1 4QQ       0.057450
     40 H12         -5.3230    -2.9670     1.1130 hc         1 4QQ       0.052450
     41 H13         -4.8280    -1.6950     0.0040 hc         1 4QQ       0.052450
     42 H14         -3.5100    -4.4650     0.2560 hc         1 4QQ       0.043200
     43 H15         -4.5300    -3.9130    -1.0770 hc         1 4QQ       0.043200
     44 H16         -2.0980    -3.6870    -1.6610 hc         1 4QQ       0.052450
     45 H17         -2.8980    -2.1210    -1.6450 hc         1 4QQ       0.052450
     46 H18         -0.7650    -1.9150    -0.5210 h1         1 4QQ       0.057450
     47 H19         -1.0890    -3.2960     0.5270 h1         1 4QQ       0.057450
     48 H20         -0.0400    -0.1730     0.2370 h1         1 4QQ       0.085700
     49 H21          1.4220    -1.1020     2.7440 hc         1 4QQ       0.059200
     50 H22          0.9070    -2.1770     1.4680 hc         1 4QQ       0.059200
     51 H23          3.5020     0.1520     2.4960 ha         1 4QQ       0.111000
     52 H24          1.7660    -1.7970    -0.9440 ha         1 4QQ       0.111000
     53 H25          5.5480     0.6250     1.2050 ha         1 4QQ       0.126500
     54 H26          3.8020    -1.3420    -2.2450 ha         1 4QQ       0.126500
     55 HG12         7.9350     0.2020    -1.5660 hn         1 4QQ       0.370400
     56 HG22         5.0880     0.0840    -3.1300 hn         1 4QQ       0.461000
     57 HG21         6.7210     0.5810    -3.2230 hn         1 4QQ       0.461000
     58 H            0.2480     1.2410     2.8130 hn         1 4QQ       0.503000
@<TRIPOS>BOND
     1     1     2 2   
     2     1     3 2   
     3     1     4 1   
     4     1    17 1   
     5     4     5 ar  
     6     4     9 ar  
     7     5     6 ar  
     8     5    31 1   
     9     6     7 ar  
    10     6    32 1   
    11     7     8 ar  
    12     7    10 1   
    13     8     9 ar  
    14     8    33 1   
    15     9    34 1   
    16    10    35 1   
    17    10    36 1   
    18    10    37 1   
    19    11    12 1   
    20    11    16 1   
    21    11    19 1   
    22    12    13 1   
    23    12    38 1   
    24    12    39 1   
    25    13    14 1   
    26    13    40 1   
    27    13    41 1   
    28    14    15 1   
    29    14    42 1   
    30    14    43 1   
    31    15    16 1   
    32    15    44 1   
    33    15    45 1   
    34    16    46 1   
    35    16    47 1   
    36    17    18 1   
    37    17    58 1   
    38    18    19 1   
    39    18    21 1   
    40    18    48 1   
    41    19    20 2   
    42    21    22 1   
    43    21    49 1   
    44    21    50 1   
    45    22    23 ar  
    46    22    24 ar  
    47    23    25 ar  
    48    23    51 1   
    49    24    26 ar  
    50    24    52 1   
    51    25    27 ar  
    52    25    53 1   
    53    26    27 ar  
    54    26    54 1   
    55    27    28 1   
    56    28    29 2   
    57    28    30 1   
    58    29    55 1   
    59    30    56 1   
    60    30    57 1   
@<TRIPOS>SUBSTRUCTURE
     1 4QQ         1 TEMP              0 ****  ****    0 ROOT
