@<TRIPOS>MOLECULE
4QT
   18    18     1     0     0
SMALL
abcg2


@<TRIPOS>ATOM
      1 CAI         -0.0570    -1.5820    -0.0230 ca         1 4QT       0.389000
      2 CAJ         -1.1960    -0.7610    -0.1210 ca         1 4QT      -0.105900
      3 CAK          1.1790    -0.9090     0.0640 ca         1 4QT      -0.105900
      4 CAL          0.1200     1.2530    -0.0180 ca         1 4QT      -0.075900
      5 CAM         -1.1140     0.6260    -0.1200 ca         1 4QT       0.167600
      6 CAN          1.2680     0.4770     0.0730 ca         1 4QT       0.167600
      7 NAA         -0.1390    -2.9330    -0.0660 nv         1 4QT      -1.073000
      8 OAB         -2.7590     1.6720     1.0200 oh         1 4QT      -0.417000
      9 OAC          3.0190     1.3420    -1.0610 oh         1 4QT      -0.417000
     10 OAG         -2.2390     1.3750    -0.2680 os         1 4QT      -0.124100
     11 OAH          2.4820     1.0690     0.2260 os         1 4QT      -0.124100
     12 BRD         -2.8960    -1.5410    -0.2890 br         1 4QT      -0.061100
     13 BRE          2.7710    -1.8960     0.1720 br         1 4QT      -0.061100
     14 BRF          0.2340     3.1180     0.0040 br         1 4QT      -0.038100
     15 HAD         -1.0190    -3.3720     0.1490 hn         1 4QT       0.488000
     16 HAC          0.6530    -3.4750     0.2390 hn         1 4QT       0.488000
     17 HAA         -3.5390     1.0970     1.0620 ho         1 4QT       0.452000
     18 HAB          2.9210     2.3050    -1.1210 ho         1 4QT       0.452000
@<TRIPOS>BOND
     1     1     2 ar  
     2     1     3 ar  
     3     1     7 1   
     4     2     5 ar  
     5     2    12 1   
     6     3     6 ar  
     7     3    13 1   
     8     4     5 ar  
     9     4     6 ar  
    10     4    14 1   
    11     5    10 1   
    12     6    11 1   
    13     7    15 1   
    14     7    16 1   
    15     8    10 1   
    16     8    17 1   
    17     9    11 1   
    18     9    18 1   
@<TRIPOS>SUBSTRUCTURE
     1 4QT         1 TEMP              0 ****  ****    0 ROOT
