@<TRIPOS>MOLECULE
4QT
   18    18     1     0     0
SMALL
No Charge or Current Charge


@<TRIPOS>ATOM
      1 CAI         -0.0570    -1.5400    -0.0250 ca         1 4QT       0.389000
      2 CAJ         -1.2170    -0.7500    -0.1500 ca         1 4QT      -0.105900
      3 CAK          1.2040    -0.9240     0.1060 ca         1 4QT      -0.105900
      4 CAL          0.1460     1.2740    -0.0150 ca         1 4QT      -0.075900
      5 CAM         -1.1130     0.6550    -0.1370 ca         1 4QT       0.167600
      6 CAN          1.3030     0.4810     0.1030 ca         1 4QT       0.167600
      7 NAA         -0.1550    -2.9110    -0.0310 nv         1 4QT      -1.073000
      8 OAB         -2.8540     1.6700     1.0630 oh         1 4QT      -0.417000
      9 OAC          3.1180     1.3610    -1.0950 oh         1 4QT      -0.417000
     10 OAG         -2.2450     1.4300    -0.2560 os         1 4QT      -0.124100
     11 OAH          2.5360     1.0810     0.2290 os         1 4QT      -0.124100
     12 BrD         -2.9520    -1.5750    -0.3410 br         1 4QT      -0.061100
     13 BrE          2.8040    -1.9890     0.2890 br         1 4QT      -0.061100
     14 BrF          0.2810     3.1940    -0.0030 br         1 4QT      -0.038100
     15 HAD         -1.0730    -3.3410     0.0680 hn         1 4QT       0.488000
     16 HAC          0.6500    -3.4680     0.2490 hn         1 4QT       0.488000
     17 HAA         -3.5020     0.9310     1.1010 ho         1 4QT       0.452000
     18 HAB          2.8160     2.2870    -1.2340 ho         1 4QT       0.452000
@<TRIPOS>BOND
     1     1     2 ar  
     2     1     3 ar  
     3     1     7 1   
     4     2     5 ar  
     5     2    12 1   
     6     3     6 ar  
     7     3    13 1   
     8     4     5 ar  
     9     4     6 ar  
    10     4    14 1   
    11     5    10 1   
    12     6    11 1   
    13     7    15 1   
    14     7    16 1   
    15     8    10 1   
    16     8    17 1   
    17     9    11 1   
    18     9    18 1   
@<TRIPOS>SUBSTRUCTURE
     1 4QT         1 TEMP              0 ****  ****    0 ROOT
