@<TRIPOS>MOLECULE
4QU
   42    46     1     0     0
SMALL
bcc


@<TRIPOS>ATOM
      1 C10        -36.1370   -27.6460    -3.9980 ca         1 4QU       0.702300
      2 C13        -37.2940   -26.6420    -2.3250 cc         1 4QU       0.527800
      3 C15        -37.6290   -27.5700    -0.0850 c3         1 4QU       0.152300
      4 C17        -35.6960   -26.2640     0.8850 ca         1 4QU      -0.078000
      5 C20        -36.3480   -28.2820     1.9590 ca         1 4QU       0.436200
      6 C01        -32.3270   -31.3860    -8.7800 cc         1 4QU      -0.196000
      7 C02        -32.6580   -30.2050    -9.4890 cc         1 4QU      -0.066000
      8 C03        -33.3970   -29.2220    -8.9110 cd         1 4QU      -0.100300
      9 C04        -33.8460   -29.3840    -7.5570 cd         1 4QU       0.172700
     10 C05        -32.7530   -31.5360    -7.5130 cd         1 4QU      -0.035300
     11 C06        -34.9810   -28.5660    -5.7420 ca         1 4QU       0.726300
     12 C07        -34.6870   -29.7250    -4.9820 ca         1 4QU      -0.386900
     13 C08        -33.9120   -30.7960    -5.5610 c          1 4QU       0.623900
     14 C09        -33.7650   -27.9650    -9.6300 c3         1 4QU      -0.034800
     15 C11        -35.8880   -28.7670    -3.1670 ca         1 4QU      -0.373900
     16 C12        -35.1520   -29.8160    -3.6800 ca         1 4QU       0.073000
     17 C14        -36.4000   -28.8020    -1.8050 c          1 4QU       0.730100
     18 C16        -36.5370   -27.3690     0.9290 ca         1 4QU      -0.234600
     19 C18        -34.7190   -26.1240     1.8560 ca         1 4QU      -0.249300
     20 C19        -34.6220   -27.0960     2.8420 ca         1 4QU       0.413200
     21 N01        -33.5020   -30.5560    -6.9010 n          1 4QU      -0.116200
     22 N02        -34.5520   -28.4290    -7.0080 nc         1 4QU      -0.436000
     23 N03        -35.6960   -27.5570    -5.2390 nb         1 4QU      -0.661000
     24 N04        -36.8650   -26.5830    -3.5330 nd         1 4QU      -0.689700
     25 N05        -37.1050   -27.6610    -1.4460 n          1 4QU      -0.411300
     26 N06        -35.4190   -28.1550     2.8980 nb         1 4QU      -0.663000
     27 O01        -33.6090   -31.8250    -5.0030 o          1 4QU      -0.581500
     28 O02        -36.2490   -29.7210    -1.0270 o          1 4QU      -0.592500
     29 H1         -37.8710   -25.8080    -1.9390 h5         1 4QU       0.050800
     30 H2         -38.3270   -26.7330    -0.0610 h1         1 4QU       0.068200
     31 H3         -38.2030   -28.4700     0.1360 h1         1 4QU       0.068200
     32 H5         -36.9850   -29.1590     2.0230 h4         1 4QU       0.027100
     33 H6         -31.7400   -32.1660    -9.2420 ha         1 4QU       0.157000
     34 H7         -32.3150   -30.0870   -10.5090 ha         1 4QU       0.147000
     35 H8         -32.5400   -32.4070    -6.9140 h4         1 4QU       0.187000
     36 H9         -33.3730   -27.0860    -9.1190 hc         1 4QU       0.055367
     37 H10        -33.3690   -27.9780   -10.6440 hc         1 4QU       0.055367
     38 H11        -34.8470   -27.8430    -9.6850 hc         1 4QU       0.055367
     39 H12        -34.9390   -30.6890    -3.0770 ha         1 4QU       0.176000
     40 H13        -34.0480   -25.2760     1.8550 ha         1 4QU       0.145000
     41 H14        -33.8680   -27.0120     3.6170 h4         1 4QU       0.021100
     42 H4         -35.8010   -25.5190     0.1040 ha         1 4QU       0.134000
@<TRIPOS>BOND
     1     1    15 ar  
     2     1    23 ar  
     3     1    24 1   
     4     2    24 2   
     5     2    25 1   
     6     2    29 1   
     7     3    18 1   
     8     3    25 1   
     9     3    30 1   
    10     3    31 1   
    11     4    18 ar  
    12     4    19 ar  
    13     4    42 1   
    14     5    18 ar  
    15     5    26 ar  
    16     5    32 1   
    17     6     7 1   
    18     6    10 2   
    19     6    33 1   
    20     7     8 2   
    21     7    34 1   
    22     8     9 1   
    23     8    14 1   
    24     9    21 1   
    25     9    22 2   
    26    10    21 1   
    27    10    35 1   
    28    11    12 ar  
    29    11    22 1   
    30    11    23 ar  
    31    12    13 1   
    32    12    16 ar  
    33    13    21 1   
    34    13    27 2   
    35    14    36 1   
    36    14    37 1   
    37    14    38 1   
    38    15    16 ar  
    39    15    17 1   
    40    16    39 1   
    41    17    25 1   
    42    17    28 2   
    43    19    20 ar  
    44    19    40 1   
    45    20    26 ar  
    46    20    41 1   
@<TRIPOS>SUBSTRUCTURE
     1 4QU         1 TEMP              0 ****  ****    0 ROOT
