@<TRIPOS>MOLECULE
4QU
   42    46     1     0     0
SMALL
No Charge or Current Charge


@<TRIPOS>ATOM
      1 C10        -36.0110   -27.6180    -3.9440 ca         1 4QU       0.374000
      2 C13        -37.1180   -26.5860    -2.1910 cc         1 4QU       0.527800
      3 C15        -37.5900   -27.6580    -0.0060 c3         1 4QU       0.152300
      4 C17        -36.1180   -26.0020     1.2510 ca         1 4QU      -0.060000
      5 C20        -35.9880   -28.3470     1.8470 ca         1 4QU       0.370900
      6 C01        -32.4570   -31.5170    -9.0080 cc         1 4QU      -0.178000
      7 C02        -32.6750   -30.2740    -9.6530 cc         1 4QU      -0.048000
      8 C03        -33.3310   -29.2490    -9.0070 cd         1 4QU      -0.100300
      9 C04        -33.7950   -29.4810    -7.6410 cd         1 4QU       0.122000
     10 C05        -32.9070   -31.6980    -7.7270 cd         1 4QU      -0.068000
     11 C06        -34.8920   -28.5990    -5.7750 ca         1 4QU       0.398000
     12 C07        -34.7230   -29.7940    -5.0560 ca         1 4QU      -0.321600
     13 C08        -34.0290   -30.9370    -5.6830 c          1 4QU       0.548400
     14 C09        -33.5520   -27.9260    -9.7190 c3         1 4QU      -0.034800
     15 C11        -35.8680   -28.7870    -3.1880 ca         1 4QU      -0.308600
     16 C12        -35.2150   -29.8950    -3.7460 ca         1 4QU       0.091000
     17 C14        -36.4020   -28.8480    -1.8140 c          1 4QU       0.587600
     18 C16        -36.5470   -27.3260     1.0500 ca         1 4QU      -0.169300
     19 C18        -35.1510   -25.7600     2.2390 ca         1 4QU      -0.166000
     20 C19        -34.6490   -26.8380     2.9870 ca         1 4QU       0.347900
     21 N01        -33.5840   -30.7160    -6.9890 n          1 4QU      -0.014800
     22 N02        -34.4220   -28.4340    -7.0910 nc         1 4QU      -0.436000
     23 N03        -35.5260   -27.5590    -5.1980 nb         1 4QU      -0.135000
     24 N04        -36.6540   -26.4800    -3.4370 nd         1 4QU      -0.689700
     25 N05        -37.0290   -27.6950    -1.3730 n          1 4QU      -0.344300
     26 N06        -35.0560   -28.1140     2.8010 nb         1 4QU      -0.663000
     27 O01        -33.8630   -31.9960    -5.0850 o          1 4QU      -0.506000
     28 O02        -36.2940   -29.8500    -1.1200 o          1 4QU      -0.517000
     29 H1         -37.6220   -25.7400    -1.7390 h5         1 4QU       0.050800
     30 H2         -38.3920   -26.9080     0.0370 h1         1 4QU       0.068200
     31 H3         -38.0590   -28.6240     0.2240 h1         1 4QU       0.068200
     32 H5         -36.2970   -29.3840     1.7200 h4         1 4QU       0.027100
     33 H6         -31.9370   -32.3100    -9.5380 ha         1 4QU       0.139000
     34 H7         -32.3100   -30.1510   -10.6690 ha         1 4QU       0.129000
     35 H8         -32.7680   -32.6270    -7.1860 h4         1 4QU       0.169000
     36 H9         -33.0740   -27.1010    -9.1770 hc         1 4QU       0.055367
     37 H10        -33.1380   -27.9320   -10.7340 hc         1 4QU       0.055367
     38 H11        -34.6210   -27.6970    -9.8050 hc         1 4QU       0.055367
     39 H12        -35.0930   -30.8160    -3.1730 ha         1 4QU       0.158000
     40 H13        -34.7900   -24.7530     2.4290 ha         1 4QU       0.127000
     41 H14        -33.8980   -26.6750     3.7590 h4         1 4QU       0.021100
     42 H4         -36.5230   -25.1820     0.6600 ha         1 4QU       0.116000
@<TRIPOS>BOND
     1     1    15 ar  
     2     1    23 ar  
     3     1    24 1   
     4     2    24 2   
     5     2    25 1   
     6     2    29 1   
     7     3    18 1   
     8     3    25 1   
     9     3    30 1   
    10     3    31 1   
    11     4    18 ar  
    12     4    19 ar  
    13     4    42 1   
    14     5    18 ar  
    15     5    26 ar  
    16     5    32 1   
    17     6     7 1   
    18     6    10 2   
    19     6    33 1   
    20     7     8 2   
    21     7    34 1   
    22     8     9 1   
    23     8    14 1   
    24     9    21 1   
    25     9    22 2   
    26    10    21 1   
    27    10    35 1   
    28    11    12 ar  
    29    11    22 1   
    30    11    23 ar  
    31    12    13 1   
    32    12    16 ar  
    33    13    21 1   
    34    13    27 2   
    35    14    36 1   
    36    14    37 1   
    37    14    38 1   
    38    15    16 ar  
    39    15    17 1   
    40    16    39 1   
    41    17    25 1   
    42    17    28 2   
    43    19    20 ar  
    44    19    40 1   
    45    20    26 ar  
    46    20    41 1   
@<TRIPOS>SUBSTRUCTURE
     1 4QU         1 TEMP              0 ****  ****    0 ROOT
