@<TRIPOS>MOLECULE
4QV
   30    33     1     0     0
SMALL
bcc


@<TRIPOS>ATOM
      1 OAA         -0.1350    -2.9880     0.0150 o          1 4QV      -0.648500
      2 CAB         -0.8530    -2.0070     0.0230 c          1 4QV       0.815500
      3 NAK         -2.2120    -1.9680     0.0500 ns         1 4QV      -0.445100
      4 CAJ         -2.6750    -0.6710     0.0520 ca         1 4QV       0.046600
      5 CAI         -3.9660    -0.1850     0.0780 ca         1 4QV      -0.239000
      6 CAG         -4.1260     1.2010     0.0740 ca         1 4QV       0.157100
      7 OAH         -5.3440     1.7770     0.1000 oh         1 4QV      -0.489100
      8 CAF         -3.0150     2.0460     0.0450 ca         1 4QV      -0.173000
      9 CAE         -1.7210     1.5390     0.0200 ca         1 4QV      -0.045000
     10 CAD         -1.5620     0.1660     0.0250 ca         1 4QV      -0.023400
     11 NAC         -0.4390    -0.6750     0.0070 n          1 4QV      -0.269500
     12 CAL          0.8760    -0.2680    -0.0110 cc         1 4QV       0.504400
     13 NAM          1.9070    -1.1480    -0.0190 na         1 4QV      -0.269300
     14 CAN          3.0580    -0.3990    -0.0360 ca         1 4QV      -0.073200
     15 CAT          4.4000    -0.7480    -0.0500 ca         1 4QV      -0.126000
     16 CAS          5.3130     0.2960    -0.0640 ca         1 4QV      -0.118000
     17 CAR          4.8940     1.6330    -0.0640 ca         1 4QV      -0.147000
     18 CAQ          3.5500     1.9710    -0.0510 ca         1 4QV      -0.076000
     19 CAO          2.6200     0.9350    -0.0360 ca         1 4QV       0.085400
     20 NAP          1.2440     0.9810    -0.0210 nd         1 4QV      -0.621100
     21 H1          -2.7810    -2.8000     0.0650 hn         1 4QV       0.360500
     22 H2          -4.8160    -0.8560     0.1000 ha         1 4QV       0.142000
     23 H3          -6.0360     1.1060     0.1260 ho         1 4QV       0.428000
     24 H4          -3.1650     3.1180     0.0430 ha         1 4QV       0.156000
     25 H5          -0.8720     2.2040    -0.0000 ha         1 4QV       0.180000
     26 H6           1.8210    -2.1530    -0.0170 hn         1 4QV       0.339700
     27 H7           4.7220    -1.7810    -0.0500 ha         1 4QV       0.138000
     28 H8           6.3720     0.0740    -0.0750 ha         1 4QV       0.131000
     29 H9           5.6390     2.4170    -0.0750 ha         1 4QV       0.131000
     30 H10          3.2320     3.0050    -0.0500 ha         1 4QV       0.145000
@<TRIPOS>BOND
     1     1     2 2   
     2     2     3 1   
     3     2    11 1   
     4     3     4 1   
     5     3    21 1   
     6     4     5 ar  
     7     4    10 ar  
     8     5     6 ar  
     9     5    22 1   
    10     6     7 1   
    11     6     8 ar  
    12     7    23 1   
    13     8     9 ar  
    14     8    24 1   
    15     9    10 ar  
    16     9    25 1   
    17    10    11 1   
    18    11    12 1   
    19    12    13 1   
    20    12    20 2   
    21    13    14 1   
    22    13    26 1   
    23    14    15 ar  
    24    14    19 ar  
    25    15    16 ar  
    26    15    27 1   
    27    16    17 ar  
    28    16    28 1   
    29    17    18 ar  
    30    17    29 1   
    31    18    19 ar  
    32    18    30 1   
    33    19    20 1   
@<TRIPOS>SUBSTRUCTURE
     1 4QV         1 TEMP              0 ****  ****    0 ROOT
