@<TRIPOS>MOLECULE
4QV
   30    33     1     0     0
SMALL
No Charge or Current Charge


@<TRIPOS>ATOM
      1 OAA         -0.1690    -3.0190     0.0230 o          1 4QV      -0.573000
      2 CAB         -0.8540    -2.0080     0.0300 c          1 4QV       0.606000
      3 NAK         -2.2160    -1.9520     0.0510 ns         1 4QV      -0.491600
      4 CAJ         -2.7190    -0.6560     0.0550 ca         1 4QV       0.046600
      5 CAI         -4.0340    -0.1900     0.0730 ca         1 4QV      -0.221000
      6 CAG         -4.2190     1.2070     0.0720 ca         1 4QV       0.157100
      7 OAH         -5.4790     1.7240     0.0900 oh         1 4QV      -0.528100
      8 CAF         -3.1080     2.0820     0.0520 ca         1 4QV      -0.155000
      9 CAE         -1.7850     1.5800     0.0330 ca         1 4QV      -0.027000
     10 CAD         -1.6190     0.1840     0.0350 ca         1 4QV      -0.023400
     11 NAC         -0.4490    -0.6600     0.0190 n          1 4QV      -0.202500
     12 CAL          0.8790    -0.2380    -0.0020 cc         1 4QV       0.504400
     13 NAM          1.9550    -1.1190    -0.0160 na         1 4QV      -0.319600
     14 CAN          3.0900    -0.3710    -0.0360 ca         1 4QV      -0.073200
     15 CAT          4.4340    -0.7630    -0.0560 ca         1 4QV      -0.108000
     16 CAS          5.4070     0.2590    -0.0740 ca         1 4QV      -0.100000
     17 CAR          5.0120     1.6200    -0.0720 ca         1 4QV      -0.129000
     18 CAQ          3.6420     1.9680    -0.0520 ca         1 4QV      -0.058000
     19 CAO          2.6940     0.9350    -0.0340 ca         1 4QV       0.085400
     20 NAP          1.3060     1.0420    -0.0130 nd         1 4QV      -0.621100
     21 H1          -2.7910    -2.7890     0.0620 hn         1 4QV       0.474000
     22 H2          -4.8730    -0.8800     0.0890 ha         1 4QV       0.124000
     23 H3          -6.1170     0.9780     0.1020 ho         1 4QV       0.467000
     24 H4          -3.2720     3.1570     0.0510 ha         1 4QV       0.138000
     25 H5          -0.9400     2.2620     0.0180 ha         1 4QV       0.162000
     26 H6           1.8780    -2.1290    -0.0120 hn         1 4QV       0.390000
     27 H7           4.7190    -1.8120    -0.0570 ha         1 4QV       0.120000
     28 H8           6.4630     0.0010    -0.0890 ha         1 4QV       0.113000
     29 H9           5.7670     2.4020    -0.0860 ha         1 4QV       0.113000
     30 H10          3.3290     3.0090    -0.0500 ha         1 4QV       0.127000
@<TRIPOS>BOND
     1     1     2 2   
     2     2     3 1   
     3     2    11 1   
     4     3     4 1   
     5     3    21 1   
     6     4     5 ar  
     7     4    10 ar  
     8     5     6 ar  
     9     5    22 1   
    10     6     7 1   
    11     6     8 ar  
    12     7    23 1   
    13     8     9 ar  
    14     8    24 1   
    15     9    10 ar  
    16     9    25 1   
    17    10    11 1   
    18    11    12 1   
    19    12    13 1   
    20    12    20 2   
    21    13    14 1   
    22    13    26 1   
    23    14    15 ar  
    24    14    19 ar  
    25    15    16 ar  
    26    15    27 1   
    27    16    17 ar  
    28    16    28 1   
    29    17    18 ar  
    30    17    29 1   
    31    18    19 ar  
    32    18    30 1   
    33    19    20 1   
@<TRIPOS>SUBSTRUCTURE
     1 4QV         1 TEMP              0 ****  ****    0 ROOT
