@<TRIPOS>MOLECULE
4QW
   32    34     1     0     0
SMALL
No Charge or Current Charge


@<TRIPOS>ATOM
      1 C10         -0.3520     2.9840     0.6540 c5         1 4QW       0.080800
      2 C13         -2.3120    -0.0170    -0.1650 ca         1 4QW      -0.174900
      3 C15         -3.2690    -1.9000    -1.3400 ca         1 4QW      -0.172000
      4 N02          3.1780    -1.1660     0.3290 na         1 4QW      -0.158500
      5 C03          4.4870    -0.9190    -0.0320 cc         1 4QW       0.402400
      6 N04          4.5530     0.0230    -0.9610 nd         1 4QW      -0.673000
      7 C05          3.2450     0.3920    -1.2040 cd         1 4QW       0.262900
      8 C06          2.3750    -0.3350    -0.4250 cc         1 4QW      -0.187800
      9 C08          0.1490     0.8440    -0.1610 cf         1 4QW      -0.208800
     10 C09          0.8240     2.1930     0.0030 c5         1 4QW      -0.072200
     11 N11         -1.6160     2.2090     0.3860 n2         1 4QW      -0.545900
     12 C12         -1.2720     1.0090     0.0230 cf         1 4QW       0.485200
     13 C14         -2.2180    -0.9820    -1.1880 ca         1 4QW      -0.061000
     14 C16         -4.3810    -1.8180    -0.4870 ca         1 4QW       0.343900
     15 N17         -4.4950    -0.8780     0.4780 nb         1 4QW      -0.667000
     16 C18         -3.4800     0.0090     0.6220 ca         1 4QW       0.370900
     17 H102        -0.2030     3.0730     1.7390 h1         1 4QW       0.071700
     18 H101        -0.4220     4.0030     0.2480 h1         1 4QW       0.071700
     19 H151        -3.2330    -2.6630    -2.1130 ha         1 4QW       0.124000
     20 H011         2.2030    -2.9610     0.8520 h1         1 4QW       0.055367
     21 H012         3.5940    -2.5300     1.8910 h1         1 4QW       0.055367
     22 H013         2.0520    -1.6390     2.0490 h1         1 4QW       0.055367
     23 H031         5.3230    -1.4460     0.4130 h5         1 4QW       0.055100
     24 H051         2.9990     1.1580    -1.9290 h4         1 4QW       0.039100
     25 H071         0.4260    -1.2450    -0.3320 ha         1 4QW       0.180000
     26 H092         1.1110     2.6180    -0.9650 hc         1 4QW       0.067200
     27 H091         1.7110     2.1700     0.6480 hc         1 4QW       0.067200
     28 H141        -1.3620    -1.0140    -1.8600 ha         1 4QW       0.123000
     29 H161        -5.2100    -2.5180    -0.5860 h4         1 4QW       0.020100
     30 H181        -3.6100     0.7520     1.4090 h4         1 4QW       0.034100
     31 C07          0.9180    -0.2710    -0.3380 ce         1 4QW      -0.099200
     32 C01          2.7310    -2.1330     1.3430 c3         1 4QW       0.054900
@<TRIPOS>BOND
     1     1    10 1   
     2     1    11 1   
     3     1    17 1   
     4     1    18 1   
     5     2    12 1   
     6     2    13 ar  
     7     2    16 ar  
     8     3    13 ar  
     9     3    14 ar  
    10     3    19 1   
    11     4     5 1   
    12     4     8 1   
    13     4    32 1   
    14     5     6 2   
    15     5    23 1   
    16     6     7 1   
    17     7     8 2   
    18     7    24 1   
    19     8    31 1   
    20     9    10 1   
    21     9    12 1   
    22     9    31 2   
    23    10    26 1   
    24    10    27 1   
    25    11    12 2   
    26    13    28 1   
    27    14    15 ar  
    28    14    29 1   
    29    15    16 ar  
    30    16    30 1   
    31    20    32 1   
    32    21    32 1   
    33    22    32 1   
    34    25    31 1   
@<TRIPOS>SUBSTRUCTURE
     1 4QW         1 TEMP              0 ****  ****    0 ROOT
