@<TRIPOS>MOLECULE
4QW
   32    34     1     0     0
SMALL
abcg2


@<TRIPOS>ATOM
      1 C10         -0.5670     3.3000    -0.0430 c5         1 4QW       0.080800
      2 C13         -2.1650     0.0260    -0.1170 ca         1 4QW      -0.174900
      3 C15         -2.9550    -2.0720    -0.9500 ca         1 4QW      -0.172000
      4 N02          2.9990    -1.3720     0.2510 na         1 4QW      -0.158500
      5 C03          4.3200    -1.1370     0.1860 cc         1 4QW       0.402400
      6 N04          4.5880     0.1170    -0.0950 nd         1 4QW      -0.673000
      7 C05          3.3810     0.7230    -0.2140 cd         1 4QW       0.262900
      8 C06          2.3560    -0.1800    -0.0030 cc         1 4QW      -0.187800
      9 C08          0.2220     1.0670    -0.1330 cf         1 4QW      -0.208800
     10 C09          0.7220     2.4780    -0.2120 c5         1 4QW      -0.072200
     11 N11         -1.6830     2.3700    -0.0600 n2         1 4QW      -0.545900
     12 C12         -1.2420     1.1740    -0.1140 cf         1 4QW       0.485200
     13 C14         -2.0250    -1.0460    -0.9920 ca         1 4QW      -0.061000
     14 C16         -3.9920    -1.9900    -0.0330 ca         1 4QW       0.343900
     15 N17         -4.1400    -0.9710     0.8070 nb         1 4QW      -0.667000
     16 C18         -3.2490     0.0080     0.7590 ca         1 4QW       0.370900
     17 H102        -0.5830     3.8510     0.9010 h1         1 4QW       0.071700
     18 H101        -0.7030     4.0420    -0.8320 h1         1 4QW       0.071700
     19 H151        -2.8820    -2.9180    -1.6190 ha         1 4QW       0.124000
     20 H011         1.7590    -2.9760    -0.2890 h1         1 4QW       0.055367
     21 H012         3.1630    -3.3850     0.6980 h1         1 4QW       0.055367
     22 H013         1.7750    -2.5900     1.4430 h1         1 4QW       0.055367
     23 H031         5.0470    -1.9170     0.3540 h5         1 4QW       0.055100
     24 H051         3.3010     1.7700    -0.4610 h4         1 4QW       0.039100
     25 H071         0.3680    -0.9980     0.0870 ha         1 4QW       0.180000
     26 H092         1.2040     2.6760    -1.1730 hc         1 4QW       0.067200
     27 H091         1.4600     2.6940     0.5640 hc         1 4QW       0.067200
     28 H141        -1.2160    -1.0740    -1.7110 ha         1 4QW       0.123000
     29 H161        -4.7340    -2.7780     0.0240 h4         1 4QW       0.020100
     30 H181        -3.3880     0.8270     1.4560 h4         1 4QW       0.034100
     31 C07          0.9230    -0.0720    -0.0180 ce         1 4QW      -0.099200
     32 C01          2.3820    -2.6470     0.5410 c3         1 4QW       0.054900
@<TRIPOS>BOND
     1     1    10 1   
     2     1    11 1   
     3     1    17 1   
     4     1    18 1   
     5     2    12 1   
     6     2    13 ar  
     7     2    16 ar  
     8     3    13 ar  
     9     3    14 ar  
    10     3    19 1   
    11     4     5 1   
    12     4     8 1   
    13     4    32 1   
    14     5     6 2   
    15     5    23 1   
    16     6     7 1   
    17     7     8 2   
    18     7    24 1   
    19     8    31 1   
    20     9    10 1   
    21     9    12 1   
    22     9    31 2   
    23    10    26 1   
    24    10    27 1   
    25    11    12 2   
    26    13    28 1   
    27    14    15 ar  
    28    14    29 1   
    29    15    16 ar  
    30    16    30 1   
    31    20    32 1   
    32    21    32 1   
    33    22    32 1   
    34    25    31 1   
@<TRIPOS>SUBSTRUCTURE
     1 4QW         1 TEMP              0 ****  ****    0 ROOT
