@<TRIPOS>MOLECULE
4QX
   35    36     1     0     0
SMALL
No Charge or Current Charge


@<TRIPOS>ATOM
      1 C1          -4.9570     1.3910    -0.0570 c3         1 4QX       0.123700
      2 C2          -5.2650     1.8160     1.3920 c3         1 4QX      -0.110600
      3 C3          -2.6070     0.4880     0.0020 c          1 4QX       0.645900
      4 C7           2.5960    -0.5510     0.6650 ca         1 4QX      -0.143500
      5 C8           3.9870    -0.3500     0.6010 ca         1 4QX      -0.074500
      6 C9           4.5000     0.8070    -0.0090 ca         1 4QX       0.090000
      7 C10          3.6240     1.7630    -0.5490 ca         1 4QX      -0.074500
      8 C11          2.2330     1.5570    -0.4820 ca         1 4QX      -0.143500
      9 Cl           6.2380     1.0620    -0.0900 cl         1 4QX      -0.205000
     10 C6           1.7120     0.3960     0.1140 ca         1 4QX       0.318000
     11 C4          -0.5070    -0.8270     0.0420 cc         1 4QX       0.774400
     12 N2          -0.0460    -2.0500    -0.0500 nd         1 4QX      -0.807000
     13 C5          -1.2120    -2.7280    -0.1590 cd         1 4QX       0.819900
     14 N4          -1.2230    -4.0300    -0.2960 nv         1 4QX      -1.023900
     15 N3          -2.3020    -2.0140    -0.1650 nc         1 4QX      -0.634800
     16 N1          -1.8770    -0.7150    -0.0320 n          1 4QX      -0.111500
     17 O           -2.0850     1.5940     0.0910 o          1 4QX      -0.646100
     18 N           -3.9670     0.3180    -0.0830 ns         1 4QX      -0.479900
     19 C           -6.2240     0.9630    -0.8210 c3         1 4QX      -0.110600
     20 H3          -4.5320     2.2590    -0.5810 h1         1 4QX       0.074700
     21 H6          -5.9880     2.6400     1.4070 hc         1 4QX       0.046033
     22 H5          -5.6840     0.9790     1.9630 hc         1 4QX       0.046033
     23 H4          -4.3540     2.1560     1.8980 hc         1 4QX       0.046033
     24 H11          2.2100    -1.4410     1.1530 ha         1 4QX       0.139500
     25 H12          4.6660    -1.0850     1.0260 ha         1 4QX       0.130000
     26 H13          4.0220     2.6600    -1.0160 ha         1 4QX       0.130000
     27 H14          1.5620     2.3020    -0.9020 ha         1 4QX       0.139500
     28 H10         -0.2150     1.0980     0.1060 hn         1 4QX       0.544000
     29 H8          -0.3470    -4.4200    -0.6150 hn         1 4QX       0.473000
     30 H9          -2.0630    -4.4080    -0.7110 hn         1 4QX       0.473000
     31 H7          -4.2770    -0.6440    -0.1570 hn         1 4QX       0.350500
     32 H1          -6.9540     1.7820    -0.8450 hc         1 4QX       0.046033
     33 H           -5.9790     0.6980    -1.8560 hc         1 4QX       0.046033
     34 H2          -6.6960     0.0960    -0.3430 hc         1 4QX       0.046033
     35 N5           0.3310     0.2360     0.1770 nu         1 4QX      -0.932900
@<TRIPOS>BOND
     1     1     2 1   
     2     1    18 1   
     3     1    19 1   
     4     1    20 1   
     5     2    21 1   
     6     2    22 1   
     7     2    23 1   
     8     3    16 1   
     9     3    17 2   
    10     3    18 1   
    11     4     5 ar  
    12     4    10 ar  
    13     4    24 1   
    14     5     6 ar  
    15     5    25 1   
    16     6     7 ar  
    17     6     9 1   
    18     7     8 ar  
    19     7    26 1   
    20     8    10 ar  
    21     8    27 1   
    22    10    35 1   
    23    11    12 2   
    24    11    16 1   
    25    11    35 1   
    26    12    13 1   
    27    13    14 1   
    28    13    15 2   
    29    14    29 1   
    30    14    30 1   
    31    15    16 1   
    32    18    31 1   
    33    19    32 1   
    34    19    33 1   
    35    19    34 1   
    36    28    35 1   
@<TRIPOS>SUBSTRUCTURE
     1 4QX         1 TEMP              0 ****  ****    0 ROOT
