@<TRIPOS>MOLECULE
4QX
   35    36     1     0     0
SMALL
abcg2


@<TRIPOS>ATOM
      1 C1          -4.9410     1.3290    -0.1540 c3         1 4QX       0.123700
      2 C2          -5.2100     1.8190     1.2630 c3         1 4QX      -0.110600
      3 C3          -2.6220     0.5360    -0.1520 c          1 4QX       0.645900
      4 C7           2.5620    -0.6670     0.0740 ca         1 4QX      -0.143500
      5 C8           3.9380    -0.5000     0.1250 ca         1 4QX      -0.074500
      6 C9           4.4900     0.7680     0.0790 ca         1 4QX       0.090000
      7 C10          3.6730     1.8850    -0.0190 ca         1 4QX      -0.074500
      8 C11          2.3020     1.7200    -0.0690 ca         1 4QX      -0.143500
      9 CL           6.2120     0.9640     0.1450 cl         1 4QX      -0.205000
     10 C6           1.7260     0.4470    -0.0230 ca         1 4QX       0.318000
     11 C4          -0.4570    -0.6960    -0.0460 cc         1 4QX       0.774400
     12 N2          -0.1010    -1.9540     0.0270 nd         1 4QX      -0.807000
     13 C5          -1.2870    -2.6230     0.0250 cd         1 4QX       0.819900
     14 N4          -1.3250    -3.9750     0.1450 nv         1 4QX      -1.023900
     15 N3          -2.3520    -1.8700    -0.0460 nc         1 4QX      -0.634800
     16 N1          -1.8190    -0.6060    -0.0880 n          1 4QX      -0.111500
     17 O           -2.1050     1.6450    -0.1980 o          1 4QX      -0.646100
     18 N           -3.9280     0.2820    -0.1670 ns         1 4QX      -0.479900
     19 C           -6.2020     0.7890    -0.8100 c3         1 4QX      -0.110600
     20 H3          -4.5620     2.1590    -0.7530 h1         1 4QX       0.074700
     21 H6          -5.9420     2.6270     1.2530 hc         1 4QX       0.046033
     22 H5          -5.6040     1.0120     1.8830 hc         1 4QX       0.046033
     23 H4          -4.3020     2.1980     1.7320 hc         1 4QX       0.046033
     24 H11          2.1510    -1.6630     0.1100 ha         1 4QX       0.139500
     25 H12          4.5740    -1.3710     0.2020 ha         1 4QX       0.130000
     26 H13          4.0960     2.8790    -0.0560 ha         1 4QX       0.130000
     27 H14          1.6700     2.5960    -0.1460 ha         1 4QX       0.139500
     28 H10         -0.1610     1.2680    -0.1480 hn         1 4QX       0.544000
     29 H8          -0.5000    -4.4580    -0.1710 hn         1 4QX       0.473000
     30 H9          -2.1820    -4.4200    -0.1390 hn         1 4QX       0.473000
     31 H7          -4.2230    -0.6790    -0.0630 hn         1 4QX       0.350500
     32 H1          -6.9760     1.5560    -0.8260 hc         1 4QX       0.046033
     33 H           -6.0160     0.4750    -1.8370 hc         1 4QX       0.046033
     34 H2          -6.5950    -0.0660    -0.2540 hc         1 4QX       0.046033
     35 N5           0.3380     0.3890    -0.0780 nu         1 4QX      -0.932900
@<TRIPOS>BOND
     1     1     2 1   
     2     1    18 1   
     3     1    19 1   
     4     1    20 1   
     5     2    21 1   
     6     2    22 1   
     7     2    23 1   
     8     3    16 1   
     9     3    17 2   
    10     3    18 1   
    11     4     5 ar  
    12     4    10 ar  
    13     4    24 1   
    14     5     6 ar  
    15     5    25 1   
    16     6     7 ar  
    17     6     9 1   
    18     7     8 ar  
    19     7    26 1   
    20     8    10 ar  
    21     8    27 1   
    22    10    35 1   
    23    11    12 2   
    24    11    16 1   
    25    11    35 1   
    26    12    13 1   
    27    13    14 1   
    28    13    15 2   
    29    14    29 1   
    30    14    30 1   
    31    15    16 1   
    32    18    31 1   
    33    19    32 1   
    34    19    33 1   
    35    19    34 1   
    36    28    35 1   
@<TRIPOS>SUBSTRUCTURE
     1 4QX         1 TEMP              0 ****  ****    0 ROOT
