@<TRIPOS>MOLECULE
4QZ
   42    44     1     0     0
SMALL
No Charge or Current Charge


@<TRIPOS>ATOM
      1 C1          -3.5950    -1.1960     0.5990 c3         1 4QZ       0.173000
      2 C2          -4.9410    -0.7130     0.0630 ca         1 4QZ      -0.106300
      3 C3          -5.5130    -1.3340    -1.0670 ca         1 4QZ      -0.096000
      4 C7          -5.6220     0.3610     0.6750 ca         1 4QZ      -0.096000
      5 C9           0.8990     0.8780     0.1380 cc         1 4QZ       0.774400
      6 C10          0.2250     2.7820    -0.1320 cd         1 4QZ       0.819900
      7 C11          3.0820    -0.4070     0.0910 ca         1 4QZ       0.318000
      8 C12          4.0380     0.5460     0.4880 ca         1 4QZ      -0.143500
      9 C13          5.4120     0.2960     0.3100 ca         1 4QZ      -0.075500
     10 C14          5.8350    -0.9150    -0.2610 ca         1 4QZ       0.090000
     11 C15          4.8880    -1.8770    -0.6470 ca         1 4QZ      -0.075500
     12 C16          3.5150    -1.6230    -0.4670 ca         1 4QZ      -0.143500
     13 Cl           7.5510    -1.2310    -0.4830 cl         1 4QZ      -0.205000
     14 N5           1.7180    -0.2000     0.2690 nu         1 4QZ      -0.933900
     15 N2           1.3790     2.0760    -0.0830 nd         1 4QZ      -0.807000
     16 N4           0.2340     4.0710    -0.3590 nv         1 4QZ      -1.023900
     17 N3          -0.8780     2.1030     0.0130 nc         1 4QZ      -0.632800
     18 N1          -0.4750     0.8040     0.1980 n          1 4QZ      -0.110500
     19 O           -0.7280    -1.4830     0.5020 o          1 4QZ      -0.648100
     20 N           -2.5830    -0.1620     0.4110 ns         1 4QZ      -0.478900
     21 C           -3.6760    -1.6390     2.0750 c3         1 4QZ      -0.108100
     22 C6          -6.8580     0.8010     0.1680 ca         1 4QZ      -0.110500
     23 C5          -7.4220     0.1730    -0.9540 ca         1 4QZ      -0.100000
     24 C4          -6.7490    -0.8940    -1.5720 ca         1 4QZ      -0.110500
     25 H1          -3.2870    -2.0720     0.0110 h1         1 4QZ       0.076700
     26 H2          -5.0010    -2.1600    -1.5560 ha         1 4QZ       0.115000
     27 H3          -5.1960     0.8600     1.5420 ha         1 4QZ       0.115000
     28 H4           3.7230     1.4790     0.9460 ha         1 4QZ       0.139500
     29 H5           6.1460     1.0370     0.6180 ha         1 4QZ       0.130000
     30 H6           5.2170    -2.8170    -1.0850 ha         1 4QZ       0.130000
     31 H7           2.7890    -2.3730    -0.7690 ha         1 4QZ       0.139500
     32 H8           1.1460    -1.0470     0.3110 hn         1 4QZ       0.544000
     33 H9          -0.6360     4.4380    -0.7180 hn         1 4QZ       0.473000
     34 H10          1.0810     4.4200    -0.7850 hn         1 4QZ       0.473000
     35 H11         -2.8770     0.7980     0.2830 hn         1 4QZ       0.355500
     36 H12         -2.7240    -2.0710     2.4040 hc         1 4QZ       0.048367
     37 H13         -3.9120    -0.7930     2.7310 hc         1 4QZ       0.048367
     38 H14         -4.4550    -2.4000     2.2010 hc         1 4QZ       0.048367
     39 H15         -7.3770     1.6280     0.6460 ha         1 4QZ       0.115500
     40 H16         -8.3780     0.5130    -1.3460 ha         1 4QZ       0.115000
     41 H17         -7.1840    -1.3790    -2.4430 ha         1 4QZ       0.115500
     42 C8          -1.2280    -0.3700     0.3840 c          1 4QZ       0.644900
@<TRIPOS>BOND
     1     1     2 1   
     2     1    20 1   
     3     1    21 1   
     4     1    25 1   
     5     2     3 ar  
     6     2     4 ar  
     7     3    24 ar  
     8     3    26 1   
     9     4    22 ar  
    10     4    27 1   
    11     5    14 1   
    12     5    15 2   
    13     5    18 1   
    14     6    15 1   
    15     6    16 1   
    16     6    17 2   
    17     7     8 ar  
    18     7    12 ar  
    19     7    14 1   
    20     8     9 ar  
    21     8    28 1   
    22     9    10 ar  
    23     9    29 1   
    24    10    11 ar  
    25    10    13 1   
    26    11    12 ar  
    27    11    30 1   
    28    12    31 1   
    29    14    32 1   
    30    16    33 1   
    31    16    34 1   
    32    17    18 1   
    33    18    42 1   
    34    19    42 2   
    35    20    35 1   
    36    20    42 1   
    37    21    36 1   
    38    21    37 1   
    39    21    38 1   
    40    22    23 ar  
    41    22    39 1   
    42    23    24 ar  
    43    23    40 1   
    44    24    41 1   
@<TRIPOS>SUBSTRUCTURE
     1 4QZ         1 TEMP              0 ****  ****    0 ROOT
