@<TRIPOS>MOLECULE
4QZ
   42    44     1     0     0
SMALL
abcg2


@<TRIPOS>ATOM
      1 C1          -3.5820    -1.1860     0.5930 c3         1 4QZ       0.173000
      2 C2          -4.8810    -0.6760     0.0150 ca         1 4QZ      -0.106300
      3 C3          -5.4440    -1.2840    -1.1020 ca         1 4QZ      -0.096000
      4 C7          -5.5390     0.4080     0.5930 ca         1 4QZ      -0.096000
      5 C9           0.9160     0.7410     0.1310 cc         1 4QZ       0.774400
      6 C10          0.1310     2.6890     0.1150 cd         1 4QZ       0.819900
      7 C11          3.0620    -0.4590    -0.0330 ca         1 4QZ       0.318000
      8 C12          3.9260     0.6330    -0.1060 ca         1 4QZ      -0.143500
      9 C13          5.2910     0.4290    -0.2500 ca         1 4QZ      -0.075500
     10 C14          5.8030    -0.8550    -0.3170 ca         1 4QZ       0.090000
     11 C15          4.9560    -1.9510    -0.2420 ca         1 4QZ      -0.075500
     12 C16          3.5970    -1.7490    -0.1000 ca         1 4QZ      -0.143500
     13 CL           7.5110    -1.0960    -0.4980 cl         1 4QZ      -0.205000
     14 N5           1.6810    -0.3640     0.1100 nu         1 4QZ      -0.933900
     15 N2           1.2990     1.9900     0.0480 nd         1 4QZ      -0.807000
     16 N4           0.1310     4.0460     0.1150 nv         1 4QZ      -1.023900
     17 N3          -0.9480     1.9610     0.2320 nc         1 4QZ      -0.632800
     18 N1          -0.4440     0.6850     0.2480 n          1 4QZ      -0.110500
     19 O           -0.7820    -1.5600     0.3500 o          1 4QZ      -0.648100
     20 N           -2.5650    -0.1500     0.4540 ns         1 4QZ      -0.478900
     21 C           -3.7330    -1.6350     2.0440 c3         1 4QZ      -0.108100
     22 C6          -6.7320     0.8770     0.0600 ca         1 4QZ      -0.110500
     23 C5          -7.2880     0.2600    -1.0540 ca         1 4QZ      -0.100000
     24 C4          -6.6420    -0.8240    -1.6330 ca         1 4QZ      -0.110500
     25 H1          -3.2570    -2.0420    -0.0010 h1         1 4QZ       0.076700
     26 H2          -4.9420    -2.1280    -1.5620 ha         1 4QZ       0.115000
     27 H3          -5.1280     0.8980     1.4680 ha         1 4QZ       0.115000
     28 H4           3.5470     1.6420    -0.0550 ha         1 4QZ       0.139500
     29 H5           5.9500     1.2850    -0.3070 ha         1 4QZ       0.130000
     30 H6           5.3470    -2.9580    -0.2950 ha         1 4QZ       0.130000
     31 H7           2.9410    -2.6100    -0.0440 ha         1 4QZ       0.139500
     32 H8           1.1620    -1.2310     0.1840 hn         1 4QZ       0.544000
     33 H9          -0.7430     4.4880    -0.1200 hn         1 4QZ       0.473000
     34 H10          0.9270     4.4770    -0.3230 hn         1 4QZ       0.473000
     35 H11         -2.8380     0.8220     0.4880 hn         1 4QZ       0.355500
     36 H12         -2.7880    -2.0150     2.4310 hc         1 4QZ       0.048367
     37 H13         -4.0570    -0.8120     2.6830 hc         1 4QZ       0.048367
     38 H14         -4.4720    -2.4320     2.1170 hc         1 4QZ       0.048367
     39 H15         -7.2300     1.7210     0.5180 ha         1 4QZ       0.115500
     40 H16         -8.2210     0.6220    -1.4670 ha         1 4QZ       0.115000
     41 H17         -7.0690    -1.3120    -2.4990 ha         1 4QZ       0.115500
     42 C8          -1.2680    -0.4360     0.3580 c          1 4QZ       0.644900
@<TRIPOS>BOND
     1     1     2 1   
     2     1    20 1   
     3     1    21 1   
     4     1    25 1   
     5     2     3 ar  
     6     2     4 ar  
     7     3    24 ar  
     8     3    26 1   
     9     4    22 ar  
    10     4    27 1   
    11     5    14 1   
    12     5    15 2   
    13     5    18 1   
    14     6    15 1   
    15     6    16 1   
    16     6    17 2   
    17     7     8 ar  
    18     7    12 ar  
    19     7    14 1   
    20     8     9 ar  
    21     8    28 1   
    22     9    10 ar  
    23     9    29 1   
    24    10    11 ar  
    25    10    13 1   
    26    11    12 ar  
    27    11    30 1   
    28    12    31 1   
    29    14    32 1   
    30    16    33 1   
    31    16    34 1   
    32    17    18 1   
    33    18    42 1   
    34    19    42 2   
    35    20    35 1   
    36    20    42 1   
    37    21    36 1   
    38    21    37 1   
    39    21    38 1   
    40    22    23 ar  
    41    22    39 1   
    42    23    24 ar  
    43    23    40 1   
    44    24    41 1   
@<TRIPOS>SUBSTRUCTURE
     1 4QZ         1 TEMP              0 ****  ****    0 ROOT
