@<TRIPOS>MOLECULE
4R0
   38    39     1     0     0
SMALL
No Charge or Current Charge


@<TRIPOS>ATOM
      1 C1           3.5490    -1.4090     0.3210 ca         1 4R0      -0.034300
      2 C2           2.1490    -1.2680     0.2350 ca         1 4R0      -0.159000
      3 C3           1.5700    -0.0680    -0.2100 ca         1 4R0       0.321000
      4 C7          -0.7250     0.9930    -0.0410 cc         1 4R0       0.775400
      5 C8          -1.5600     2.8030     0.3820 cd         1 4R0       0.819900
      6 C10         -5.0150    -1.5130    -0.2770 c3         1 4R0       0.124700
      7 C11         -5.1470    -2.2810     1.0530 c3         1 4R0      -0.110600
      8 C12         -6.3770    -1.0300    -0.8080 c3         1 4R0      -0.110600
      9 O           -2.1350    -1.5010    -0.4210 o          1 4R0      -0.646100
     10 N4          -4.1010    -0.3820    -0.1320 ns         1 4R0      -0.480900
     11 N3          -2.0850     0.7830    -0.0110 n          1 4R0      -0.111500
     12 N2          -2.6000     2.0260     0.2660 nc         1 4R0      -0.635800
     13 N5          -1.6630     4.0830     0.6350 nv         1 4R0      -1.023900
     14 N1          -0.3500     2.2240     0.1990 nd         1 4R0      -0.807000
     15 N            0.1840     0.0130    -0.2920 nu         1 4R0      -0.932900
     16 C4           2.4020     0.9970    -0.5940 ca         1 4R0      -0.134000
     17 C5           3.8000     0.8710    -0.5140 ca         1 4R0      -0.074000
     18 C6           4.3750    -0.3260    -0.0550 ca         1 4R0       0.089000
     19 Cl           6.1320    -0.4460     0.0310 cl         1 4R0      -0.209000
     20 C            4.1500    -2.7200     0.8160 c3         1 4R0      -0.047800
     21 H3           1.5070    -2.0960     0.5220 ha         1 4R0       0.120000
     22 H8          -4.5920    -2.1990    -1.0240 h1         1 4R0       0.073700
     23 H10         -5.5570    -1.6360     1.8380 hc         1 4R0       0.045700
     24 H9          -5.8120    -3.1450     0.9340 hc         1 4R0       0.045700
     25 H11         -4.1690    -2.6500     1.3850 hc         1 4R0       0.045700
     26 H12         -6.8510    -0.3380    -0.1020 hc         1 4R0       0.045700
     27 H14         -6.2560    -0.5150    -1.7690 hc         1 4R0       0.045700
     28 H13         -7.0530    -1.8800    -0.9630 hc         1 4R0       0.045700
     29 H7          -4.4760     0.5410     0.0530 hn         1 4R0       0.351500
     30 H15         -2.5660     4.4810     0.4210 hn         1 4R0       0.473000
     31 H16         -0.8550     4.6320     0.3780 hn         1 4R0       0.473000
     32 H6          -0.3040    -0.8850    -0.3400 hn         1 4R0       0.543000
     33 H4           1.9720     1.9220    -0.9660 ha         1 4R0       0.157000
     34 H5           4.4390     1.6990    -0.8110 ha         1 4R0       0.129000
     35 H            4.7940    -3.1710     0.0510 hc         1 4R0       0.049700
     36 H2           4.7550    -2.5610     1.7160 hc         1 4R0       0.049700
     37 H1           3.3760    -3.4540     1.0670 hc         1 4R0       0.049700
     38 C9          -2.7320    -0.4520    -0.2070 c          1 4R0       0.645900
@<TRIPOS>BOND
     1     1     2 ar  
     2     1    18 ar  
     3     1    20 1   
     4     2     3 ar  
     5     2    21 1   
     6     3    15 1   
     7     3    16 ar  
     8     4    11 1   
     9     4    14 2   
    10     4    15 1   
    11     5    12 2   
    12     5    13 1   
    13     5    14 1   
    14     6     7 1   
    15     6     8 1   
    16     6    10 1   
    17     6    22 1   
    18     7    23 1   
    19     7    24 1   
    20     7    25 1   
    21     8    26 1   
    22     8    27 1   
    23     8    28 1   
    24     9    38 2   
    25    10    29 1   
    26    10    38 1   
    27    11    12 1   
    28    11    38 1   
    29    13    30 1   
    30    13    31 1   
    31    15    32 1   
    32    16    17 ar  
    33    16    33 1   
    34    17    18 ar  
    35    17    34 1   
    36    18    19 1   
    37    20    35 1   
    38    20    36 1   
    39    20    37 1   
@<TRIPOS>SUBSTRUCTURE
     1 4R0         1 TEMP              0 ****  ****    0 ROOT
