@<TRIPOS>MOLECULE
4R0
   38    39     1     0     0
SMALL
abcg2


@<TRIPOS>ATOM
      1 C1           3.6320    -1.4490     0.1420 ca         1 4R0      -0.034300
      2 C2           2.2500    -1.3560     0.0740 ca         1 4R0      -0.159000
      3 C3           1.5830    -0.1280     0.0590 ca         1 4R0       0.321000
      4 C7          -0.6790     0.8460    -0.0130 cc         1 4R0       0.775400
      5 C8          -1.6450     2.7100     0.0030 cd         1 4R0       0.819900
      6 C10         -5.0130    -1.4850    -0.1310 c3         1 4R0       0.124700
      7 C11         -5.2610    -1.9760     1.2900 c3         1 4R0      -0.110600
      8 C12         -6.3020    -1.0380    -0.8030 c3         1 4R0      -0.110600
      9 O           -2.1600    -1.6100    -0.1250 o          1 4R0      -0.646100
     10 N4          -4.0710    -0.3740    -0.1480 ns         1 4R0      -0.480900
     11 N3          -2.0300     0.6580    -0.0630 n          1 4R0      -0.111500
     12 N2          -2.6530     1.8810    -0.0570 nc         1 4R0      -0.635800
     13 N5          -1.7800     4.0580     0.0890 nv         1 4R0      -1.023900
     14 N1          -0.4140     2.1280     0.0310 nd         1 4R0      -0.807000
     15 N            0.1940    -0.1780    -0.0070 nu         1 4R0      -0.932900
     16 C4           2.3300     1.0470     0.1100 ca         1 4R0      -0.134000
     17 C5           3.7120     0.9700     0.1780 ca         1 4R0      -0.074000
     18 C6           4.3520    -0.2560     0.1950 ca         1 4R0       0.089000
     19 CL           6.0860    -0.2990     0.2850 cl         1 4R0      -0.209000
     20 C            4.3070    -2.7860     0.1620 c3         1 4R0      -0.047800
     21 H3           1.6710    -2.2730     0.0320 ha         1 4R0       0.120000
     22 H8          -4.5760    -2.2950    -0.7170 h1         1 4R0       0.073700
     23 H10         -5.7020    -1.1870     1.9010 hc         1 4R0       0.045700
     24 H9          -5.9470    -2.8240     1.2850 hc         1 4R0       0.045700
     25 H11         -4.3360    -2.3010     1.7660 hc         1 4R0       0.045700
     26 H12         -6.7560    -0.2030    -0.2640 hc         1 4R0       0.045700
     27 H14         -6.1290    -0.7270    -1.8330 hc         1 4R0       0.045700
     28 H13         -7.0220    -1.8550    -0.8130 hc         1 4R0       0.045700
     29 H7          -4.4310     0.5680    -0.0760 hn         1 4R0       0.351500
     30 H15         -2.6640     4.4350    -0.2140 hn         1 4R0       0.473000
     31 H16         -0.9890     4.5910    -0.2330 hn         1 4R0       0.473000
     32 H6          -0.2340    -1.0950    -0.0530 hn         1 4R0       0.543000
     33 H4           1.8490     2.0120     0.0990 ha         1 4R0       0.157000
     34 H5           4.2910     1.8840     0.2200 ha         1 4R0       0.129000
     35 H            4.9980    -2.8970    -0.6740 hc         1 4R0       0.049700
     36 H2           4.8860    -2.9230     1.0770 hc         1 4R0       0.049700
     37 H1           3.5760    -3.5910     0.1050 hc         1 4R0       0.049700
     38 C9          -2.7510    -0.5380    -0.1110 c          1 4R0       0.645900
@<TRIPOS>BOND
     1     1     2 ar  
     2     1    18 ar  
     3     1    20 1   
     4     2     3 ar  
     5     2    21 1   
     6     3    15 1   
     7     3    16 ar  
     8     4    11 1   
     9     4    14 2   
    10     4    15 1   
    11     5    12 2   
    12     5    13 1   
    13     5    14 1   
    14     6     7 1   
    15     6     8 1   
    16     6    10 1   
    17     6    22 1   
    18     7    23 1   
    19     7    24 1   
    20     7    25 1   
    21     8    26 1   
    22     8    27 1   
    23     8    28 1   
    24     9    38 2   
    25    10    29 1   
    26    10    38 1   
    27    11    12 1   
    28    11    38 1   
    29    13    30 1   
    30    13    31 1   
    31    15    32 1   
    32    16    17 ar  
    33    16    33 1   
    34    17    18 ar  
    35    17    34 1   
    36    18    19 1   
    37    20    35 1   
    38    20    36 1   
    39    20    37 1   
@<TRIPOS>SUBSTRUCTURE
     1 4R0         1 TEMP              0 ****  ****    0 ROOT
