@<TRIPOS>MOLECULE
4R3
   32    34     1     0     0
SMALL
abcg2


@<TRIPOS>ATOM
      1 N1         -18.8290   -15.2290     6.4940 nc         1 4R3      -0.604100
      2 N3         -20.9970   -10.1260     8.6450 na         1 4R3      -0.053000
      3 C4         -18.5360   -17.4820     5.5720 ca         1 4R3      -0.186000
      4 C5         -19.3170   -16.4150     6.0010 ca         1 4R3       0.150400
      5 C6         -20.7170   -16.5000     5.9500 ca         1 4R3      -0.275000
      6 C7         -19.7960   -14.4360     6.8100 cd         1 4R3       0.414800
      7 C10        -20.0490   -11.0110     8.2120 cc         1 4R3      -0.222600
      8 C13        -20.4480    -8.9860     9.0980 cc         1 4R3      -0.125300
      9 C1         -21.3450   -17.6340     5.4700 ca         1 4R3       0.001000
     10 C2         -20.5780   -18.7040     5.0320 ca         1 4R3      -0.254600
     11 C3         -19.1610   -18.6270     5.0860 ca         1 4R3       0.223100
     12 S1         -21.4190   -15.0240     6.5550 ss         1 4R3       0.059800
     13 O1         -22.4760   -19.9970     4.4460 o          1 4R3      -0.690000
     14 O2         -20.4540   -20.8650     4.1080 o          1 4R3      -0.690000
     15 O3         -18.4210   -19.6500     4.6700 oh         1 4R3      -0.629100
     16 N2         -19.5380   -13.1910     7.3180 ns         1 4R3      -0.380400
     17 C9         -20.4970   -12.2940     7.6920 c          1 4R3       0.642700
     18 O4         -21.6850   -12.5580     7.6000 o          1 4R3      -0.593100
     19 C11        -18.8280   -10.3870     8.4020 cd         1 4R3       0.095000
     20 C12        -19.0800    -9.1260     8.9570 cd         1 4R3       0.028000
     21 C14        -21.2390    -7.8580     9.6480 c3         1 4R3      -0.029800
     22 CL1        -17.9010    -7.9720     9.3900 cl         1 4R3      -0.158000
     23 CL2        -17.2700   -10.9750     8.0330 cl         1 4R3      -0.138000
     24 H2         -17.4560   -17.4210     5.6120 ha         1 4R3       0.122000
     25 H3         -22.4240   -17.7020     5.4270 ha         1 4R3       0.133000
     26 H5         -19.1240   -20.3410     4.3630 ho         1 4R3       0.551000
     27 H6         -18.5560   -12.9640     7.4070 hn         1 4R3       0.345500
     28 H7         -21.3450    -7.9420    10.7300 hc         1 4R3       0.054700
     29 H8         -20.7500    -6.9090     9.4360 hc         1 4R3       0.054700
     30 H9         -22.2370    -7.8320     9.2140 hc         1 4R3       0.054700
     31 C8         -21.2450   -19.9450     4.4910 c          1 4R3       0.723600
     32 H1         -21.9890   -10.3160     8.6160 hn         1 4R3       0.375000
@<TRIPOS>BOND
     1     1     4 1   
     2     1     6 2   
     3     2     7 1   
     4     2     8 1   
     5     2    32 1   
     6     3     4 ar  
     7     3    11 ar  
     8     3    24 1   
     9     4     5 ar  
    10     5     9 ar  
    11     5    12 1   
    12     6    12 1   
    13     6    16 1   
    14     7    17 1   
    15     7    19 2   
    16     8    20 2   
    17     8    21 1   
    18     9    10 ar  
    19     9    25 1   
    20    10    11 ar  
    21    10    31 1   
    22    11    15 1   
    23    13    31 1   
    24    14    31 1   
    25    15    26 1   
    26    16    17 1   
    27    16    27 1   
    28    17    18 2   
    29    19    20 1   
    30    19    23 1   
    31    20    22 1   
    32    21    28 1   
    33    21    29 1   
    34    21    30 1   
@<TRIPOS>SUBSTRUCTURE
     1 4R3         1 TEMP              0 ****  ****    0 ROOT
