@<TRIPOS>MOLECULE
4R3
   32    34     1     0     0
SMALL
No Charge or Current Charge


@<TRIPOS>ATOM
      1 N1         -19.0030   -15.1590     6.5140 nc         1 4R3      -0.604100
      2 N3         -21.1650    -9.9300     8.7010 na         1 4R3      -0.053000
      3 C4         -18.5310   -17.3810     5.5810 ca         1 4R3      -0.186000
      4 C5         -19.4160   -16.3810     5.9960 ca         1 4R3       0.150400
      5 C6         -20.7730   -16.6010     5.8950 ca         1 4R3      -0.275000
      6 C7         -20.1090   -14.4620     6.8000 cd         1 4R3       0.414800
      7 C10        -20.3900   -11.0110     8.2510 cc         1 4R3      -0.222600
      8 C13        -20.3590    -8.8800     9.1480 cc         1 4R3      -0.125300
      9 C1         -21.3080   -17.7940     5.3890 ca         1 4R3       0.001000
     10 C2         -20.4270   -18.8170     4.9640 ca         1 4R3      -0.254600
     11 C3         -19.0320   -18.5890     5.0690 ca         1 4R3       0.223100
     12 S1         -21.6960   -15.2270     6.4670 ss         1 4R3       0.059800
     13 O1         -22.1950   -20.2480     4.3500 o          1 4R3      -0.690000
     14 O2         -20.1890   -20.9730     4.0590 o          1 4R3      -0.690000
     15 O3         -18.1500   -19.5440     4.6730 oh         1 4R3      -0.629100
     16 N2         -19.9570   -13.2060     7.3300 ns         1 4R3      -0.380400
     17 C9         -20.9070   -12.2930     7.7080 c          1 4R3       0.642700
     18 O4         -22.1080   -12.4980     7.6140 o          1 4R3      -0.593100
     19 C11        -19.0790   -10.6110     8.4280 cd         1 4R3       0.095000
     20 C12        -19.0740    -9.3090     8.9760 cd         1 4R3       0.028000
     21 C14        -20.8680    -7.5730     9.6950 c3         1 4R3      -0.029800
     22 Cl1        -17.6290    -8.4230     9.3580 cl         1 4R3      -0.158000
     23 Cl2        -17.5970   -11.4590     8.0810 cl         1 4R3      -0.138000
     24 H2         -17.4590   -17.2230     5.6550 ha         1 4R3       0.122000
     25 H3         -22.3880   -17.9190     5.3300 ha         1 4R3       0.133000
     26 H5         -18.7310   -20.2940     4.3540 ho         1 4R3       0.551000
     27 H6         -19.0100   -12.8940     7.4670 hn         1 4R3       0.345500
     28 H7         -20.5210    -7.4210    10.7250 hc         1 4R3       0.054700
     29 H8         -20.5070    -6.7320     9.0910 hc         1 4R3       0.054700
     30 H9         -21.9640    -7.5380     9.7000 hc         1 4R3       0.054700
     31 C8         -20.9830   -20.1120     4.4160 c          1 4R3       0.723600
     32 H1         -22.1830    -9.9170     8.7000 hn         1 4R3       0.375000
@<TRIPOS>BOND
     1     1     4 1   
     2     1     6 2   
     3     2     7 1   
     4     2     8 1   
     5     2    32 1   
     6     3     4 ar  
     7     3    11 ar  
     8     3    24 1   
     9     4     5 ar  
    10     5     9 ar  
    11     5    12 1   
    12     6    12 1   
    13     6    16 1   
    14     7    17 1   
    15     7    19 2   
    16     8    20 2   
    17     8    21 1   
    18     9    10 ar  
    19     9    25 1   
    20    10    11 ar  
    21    10    31 1   
    22    11    15 1   
    23    13    31 1   
    24    14    31 1   
    25    15    26 1   
    26    16    17 1   
    27    16    27 1   
    28    17    18 2   
    29    19    20 1   
    30    19    23 1   
    31    20    22 1   
    32    21    28 1   
    33    21    29 1   
    34    21    30 1   
@<TRIPOS>SUBSTRUCTURE
     1 4R3         1 TEMP              0 ****  ****    0 ROOT
