@<TRIPOS>MOLECULE
4R5
   38    40     1     0     0
SMALL
bcc


@<TRIPOS>ATOM
      1 C2          -5.1540    -0.1620    -0.0650 cc         1 4R5      -0.003800
      2 C3          -6.4600    -0.0920    -0.4580 cd         1 4R5       0.258200
      3 C5          -6.7720    -1.0450     1.4880 cc         1 4R5       0.361300
      4 C11          1.7610    -0.1970    -1.3290 ca         1 4R5      -0.174000
      5 C13          1.3830     1.3510     0.4740 ca         1 4R5      -0.174000
      6 C15          3.6940     0.5250     0.0750 cp         1 4R5      -0.015000
      7 C16          4.4020    -0.6680     0.0120 ca         1 4R5      -0.147000
      8 C17          5.7550    -0.7140     0.3500 ca         1 4R5       0.142100
      9 C18          6.4060     0.4500     0.7510 ca         1 4R5      -0.206000
     10 C19          5.6920     1.6420     0.8070 ca         1 4R5      -0.091000
     11 C26          7.7000    -2.0390     0.6470 c3         1 4R5       0.125700
     12 S1          -5.0530    -0.8940     1.4940 ss         1 4R5      -0.084300
     13 N4          -7.3620    -0.5960     0.4320 nd         1 4R5      -0.609000
     14 N6          -4.0660     0.2850    -0.7790 ns         1 4R5      -0.453100
     15 C7          -2.7760     0.1640    -0.3490 c          1 4R5       0.796100
     16 N8          -1.8480     0.6600    -1.2130 ns         1 4R5      -0.487100
     17 C9          -0.4860     0.6260    -0.8970 ca         1 4R5      -0.034400
     18 C10          0.4120    -0.1550    -1.6120 ca         1 4R5       0.167400
     19 C12          2.2580     0.5580    -0.2680 cp         1 4R5       0.028000
     20 C14          0.0460     1.3770     0.1430 ca         1 4R5       0.167400
     21 C20          4.3500     1.6910     0.4780 ca         1 4R5      -0.150000
     22 O21         -2.4950    -0.3420     0.7230 o          1 4R5      -0.596100
     23 F22         -0.0640    -0.8810    -2.6260 f          1 4R5      -0.127900
     24 F24         -0.7820     2.1470     0.8490 f          1 4R5      -0.127900
     25 O25          6.3420    -1.9220     0.2690 os         1 4R5      -0.316900
     26 H1          -6.7930     0.3250    -1.3980 h4         1 4R5       0.037100
     27 H2          -7.2850    -1.4940     2.3280 h5         1 4R5       0.050100
     28 H3           2.4140    -0.8070    -1.9390 ha         1 4R5       0.162000
     29 H4           1.7340     1.9350     1.3150 ha         1 4R5       0.162000
     30 H5           3.9060    -1.5880    -0.2770 ha         1 4R5       0.150000
     31 H6           7.4530     0.4490     1.0210 ha         1 4R5       0.138000
     32 H7           6.2030     2.5470     1.1100 ha         1 4R5       0.133000
     33 H8           8.3560    -1.4370     0.0120 h1         1 4R5       0.042033
     34 H9           7.8590    -1.7510     1.6890 h1         1 4R5       0.042033
     35 H10          7.9650    -3.0860     0.5280 h1         1 4R5       0.042033
     36 H11         -4.2640     0.7350    -1.6600 hn         1 4R5       0.325500
     37 H12         -2.1200     0.9570    -2.1380 hn         1 4R5       0.332500
     38 H13          3.8200     2.6340     0.5110 ha         1 4R5       0.137000
@<TRIPOS>BOND
     1     1     2 2   
     2     1    12 1   
     3     1    14 1   
     4     2    13 1   
     5     2    26 1   
     6     3    12 1   
     7     3    13 2   
     8     3    27 1   
     9     4    18 ar  
    10     4    19 ar  
    11     4    28 1   
    12     5    19 ar  
    13     5    20 ar  
    14     5    29 1   
    15     6     7 ar  
    16     6    19 1   
    17     6    21 ar  
    18     7     8 ar  
    19     7    30 1   
    20     8     9 ar  
    21     8    25 1   
    22     9    10 ar  
    23     9    31 1   
    24    10    21 ar  
    25    10    32 1   
    26    11    25 1   
    27    11    33 1   
    28    11    34 1   
    29    11    35 1   
    30    14    15 1   
    31    14    36 1   
    32    15    16 1   
    33    15    22 2   
    34    16    17 1   
    35    16    37 1   
    36    17    18 ar  
    37    17    20 ar  
    38    18    23 1   
    39    20    24 1   
    40    21    38 1   
@<TRIPOS>SUBSTRUCTURE
     1 4R5         1 TEMP              0 ****  ****    0 ROOT
