@<TRIPOS>MOLECULE
4R5
   38    40     1     0     0
SMALL
No Charge or Current Charge


@<TRIPOS>ATOM
      1 C2          -5.4810    -0.0670    -0.0800 cc         1 4R5      -0.083400
      2 C3          -6.6000    -0.0100    -0.8860 cd         1 4R5       0.192900
      3 C5          -7.5910    -0.2930     1.0790 cc         1 4R5       0.361300
      4 C11          1.7920    -0.3710    -1.1250 ca         1 4R5      -0.156000
      5 C13          1.4060     1.0950     0.7610 ca         1 4R5      -0.156000
      6 C15          3.7990     0.4640     0.1870 cp         1 4R5      -0.015000
      7 C16          4.6350    -0.6570    -0.0470 ca         1 4R5      -0.129000
      8 C17          6.0200    -0.6000     0.1790 ca         1 4R5       0.142100
      9 C18          6.6010     0.5960     0.6490 ca         1 4R5      -0.188000
     10 C19          5.7920     1.7190     0.8880 ca         1 4R5      -0.073000
     11 C26          8.1850    -1.7850     0.1300 c3         1 4R5       0.148900
     12 S1          -5.9250    -0.2920     1.5940 ss         1 4R5       0.060600
     13 N4          -7.8120    -0.1400    -0.2220 nd         1 4R5      -0.609000
     14 N6          -4.1880     0.0490    -0.6040 ns         1 4R5      -0.386100
     15 C7          -2.9750     0.0140     0.0630 c          1 4R5       0.662100
     16 N8          -1.8940     0.1490    -0.7950 ns         1 4R5      -0.161000
     17 C9          -0.4970     0.2450    -0.5200 ca         1 4R5      -0.127000
     18 C10          0.4100    -0.4350    -1.3550 ca         1 4R5       0.202500
     19 C12          2.3220     0.3920    -0.0570 cp         1 4R5       0.028000
     20 C14          0.0220     1.0280     0.5350 ca         1 4R5       0.202500
     21 C20          4.4080     1.6530     0.6600 ca         1 4R5      -0.132000
     22 O21         -2.8680    -0.1460     1.2710 o          1 4R5      -0.596100
     23 F22         -0.0500    -1.1730    -2.3910 f          1 4R5      -0.163000
     24 F24         -0.7930     1.7730     1.3140 f          1 4R5      -0.163000
     25 O25          6.7610    -1.7380    -0.0710 os         1 4R5      -0.340100
     26 H1          -6.5960     0.1240    -1.9610 h4         1 4R5       0.037100
     27 H2          -8.3680    -0.4160     1.8220 h5         1 4R5       0.050100
     28 H3           2.4570    -0.9080    -1.7950 ha         1 4R5       0.144000
     29 H4           1.7690     1.7000     1.5880 ha         1 4R5       0.144000
     30 H5           4.2040    -1.5910    -0.3960 ha         1 4R5       0.132000
     31 H6           7.6680     0.6740     0.8340 ha         1 4R5       0.120000
     32 H7           6.2390     2.6440     1.2480 ha         1 4R5       0.115000
     33 H8           8.6930    -1.0480    -0.5040 h1         1 4R5       0.042033
     34 H9           8.4380    -1.5840     1.1790 h1         1 4R5       0.042033
     35 H10          8.5720    -2.7790    -0.1280 h1         1 4R5       0.042033
     36 H11         -4.1030     0.1810    -1.6050 hn         1 4R5       0.325500
     37 H12         -2.1270     0.1810    -1.7790 hn         1 4R5       0.166000
     38 H13          3.8050     2.5400     0.8390 ha         1 4R5       0.119000
@<TRIPOS>BOND
     1     1     2 2   
     2     1    12 1   
     3     1    14 1   
     4     2    13 1   
     5     2    26 1   
     6     3    12 1   
     7     3    13 2   
     8     3    27 1   
     9     4    18 ar  
    10     4    19 ar  
    11     4    28 1   
    12     5    19 ar  
    13     5    20 ar  
    14     5    29 1   
    15     6     7 ar  
    16     6    19 1   
    17     6    21 ar  
    18     7     8 ar  
    19     7    30 1   
    20     8     9 ar  
    21     8    25 1   
    22     9    10 ar  
    23     9    31 1   
    24    10    21 ar  
    25    10    32 1   
    26    11    25 1   
    27    11    33 1   
    28    11    34 1   
    29    11    35 1   
    30    14    15 1   
    31    14    36 1   
    32    15    16 1   
    33    15    22 2   
    34    16    17 1   
    35    16    37 1   
    36    17    18 ar  
    37    17    20 ar  
    38    18    23 1   
    39    20    24 1   
    40    21    38 1   
@<TRIPOS>SUBSTRUCTURE
     1 4R5         1 TEMP              0 ****  ****    0 ROOT
