@<TRIPOS>MOLECULE
4R6
   42    44     1     0     0
SMALL
bcc


@<TRIPOS>ATOM
      1 N1           8.0940     0.7750    -8.8750 ns         1 4R6      -0.467100
      2 C4           5.4740     4.4110    -6.3630 ca         1 4R6      -0.064000
      3 C5           6.8150     4.7610    -6.3880 ca         1 4R6      -0.173000
      4 C6           7.7190     3.9220    -7.0130 ca         1 4R6      -0.041000
      5 C7           8.4300     1.9470    -8.2810 c          1 4R6       0.695700
      6 C8           8.9080    -0.1190    -9.5680 ca         1 4R6       0.088600
      7 C10         10.9860    -0.9650   -10.4070 ca         1 4R6       0.054400
      8 C13          8.2640    -1.2090   -10.1660 ca         1 4R6      -0.188000
      9 C15          4.1250    -0.2160    -9.2870 cc         1 4R6      -0.390900
     10 C17          4.4730    -0.2600   -10.6680 cc         1 4R6       0.362600
     11 C1           7.3270     2.7300    -7.6250 ca         1 4R6      -0.188600
     12 C11         10.3630    -2.0470   -11.0030 ca         1 4R6      -0.154000
     13 C12          8.9850    -2.1540   -10.8700 ca         1 4R6      -0.091000
     14 C14          4.1940     0.9630    -8.3950 c3         1 4R6       0.237700
     15 C16          3.7520    -1.4890    -9.0040 cd         1 4R6       0.338000
     16 C18          4.9700     0.8570   -11.5120 c3         1 4R6      -0.139400
     17 C19          3.2770    -2.1570    -7.7720 c3         1 4R6      -0.143400
     18 C2           5.9600     2.3910    -7.5850 ca         1 4R6       0.176100
     19 C3           5.0470     3.2340    -6.9550 ca         1 4R6      -0.229000
     20 C9          10.2930     0.0010    -9.6930 ca         1 4R6      -0.151000
     21 N2           4.3120    -1.4580   -11.1460 nd         1 4R6      -0.359300
     22 O1           5.5780     1.2350    -8.1630 os         1 4R6      -0.357900
     23 O2           9.5720     2.3770    -8.2670 o          1 4R6      -0.594100
     24 O3           3.8580    -2.2270   -10.1100 os         1 4R6      -0.115100
     25 CL1         12.7070    -0.7990   -10.5520 cl         1 4R6      -0.115400
     26 H1           7.1160     0.5210    -8.8320 hn         1 4R6       0.344500
     27 H2           4.7480     5.0510    -5.8790 ha         1 4R6       0.135000
     28 H3           7.1550     5.6790    -5.9280 ha         1 4R6       0.143000
     29 H4           8.7650     4.1930    -7.0380 ha         1 4R6       0.163000
     30 H5           7.1890    -1.3140   -10.0770 ha         1 4R6       0.134000
     31 H6          10.9300    -2.7860   -11.5530 ha         1 4R6       0.148000
     32 H7           8.4670    -2.9880   -11.3240 ha         1 4R6       0.137000
     33 H8           3.7240     1.8310    -8.8670 h1         1 4R6       0.049700
     34 H9           3.6800     0.7760    -7.4490 h1         1 4R6       0.049700
     35 H10          5.0700     0.5480   -12.5500 hc         1 4R6       0.061700
     36 H11          4.2880     1.7070   -11.4690 hc         1 4R6       0.061700
     37 H12          5.9430     1.2020   -11.1610 hc         1 4R6       0.061700
     38 H13          2.2820    -2.5820    -7.9120 hc         1 4R6       0.068367
     39 H14          3.9470    -2.9670    -7.4820 hc         1 4R6       0.068367
     40 H15          3.2290    -1.4470    -6.9500 hc         1 4R6       0.068367
     41 H16          3.9970     2.9780    -6.9120 ha         1 4R6       0.137000
     42 H17         10.8260     0.8240    -9.2470 ha         1 4R6       0.181000
@<TRIPOS>BOND
     1     1     5 1   
     2     1     6 1   
     3     1    26 1   
     4     2     3 ar  
     5     2    19 ar  
     6     2    27 1   
     7     3     4 ar  
     8     3    28 1   
     9     4    11 ar  
    10     4    29 1   
    11     5    11 1   
    12     5    23 2   
    13     6     8 ar  
    14     6    20 ar  
    15     7    12 ar  
    16     7    20 ar  
    17     7    25 1   
    18     8    13 ar  
    19     8    30 1   
    20     9    10 1   
    21     9    14 1   
    22     9    15 2   
    23    10    16 1   
    24    10    21 2   
    25    11    18 ar  
    26    12    13 ar  
    27    12    31 1   
    28    13    32 1   
    29    14    22 1   
    30    14    33 1   
    31    14    34 1   
    32    15    17 1   
    33    15    24 1   
    34    16    35 1   
    35    16    36 1   
    36    16    37 1   
    37    17    38 1   
    38    17    39 1   
    39    17    40 1   
    40    18    19 ar  
    41    18    22 1   
    42    19    41 1   
    43    20    42 1   
    44    21    24 1   
@<TRIPOS>SUBSTRUCTURE
     1 4R6         1 TEMP              0 ****  ****    0 ROOT
