@<TRIPOS>MOLECULE
4R6
   42    44     1     0     0
SMALL
No Charge or Current Charge


@<TRIPOS>ATOM
      1 N1           8.1210     0.8120    -8.8060 ns         1 4R6      -0.141000
      2 C4           5.3630     4.4320    -6.2820 ca         1 4R6      -0.046000
      3 C5           6.7160     4.7730    -6.1910 ca         1 4R6      -0.155000
      4 C6           7.6880     3.9730    -6.8100 ca         1 4R6      -0.023000
      5 C7           8.4550     2.0070    -8.1820 c          1 4R6       0.628700
      6 C8           8.8760    -0.1440    -9.5370 ca         1 4R6      -0.004000
      7 C10         10.8930    -0.9500   -10.6540 ca         1 4R6       0.146000
      8 C13          8.2200    -1.3330    -9.9110 ca         1 4R6      -0.170000
      9 C15          4.2060    -0.2490    -9.4030 cc         1 4R6      -0.260300
     10 C17          4.6060    -0.3480   -10.7520 cc         1 4R6       0.297300
     11 C1           7.3290     2.8090    -7.5360 ca         1 4R6      -0.188600
     12 C11         10.2320    -2.1330   -11.0170 ca         1 4R6      -0.136000
     13 C12          8.8910    -2.3250   -10.6460 ca         1 4R6      -0.073000
     14 C14          4.1900     1.0020    -8.5750 c3         1 4R6       0.260900
     15 C16          3.8750    -1.5210    -9.0670 cd         1 4R6       0.228300
     16 C18          5.0830     0.8270   -11.5580 c3         1 4R6      -0.139400
     17 C19          3.3870    -2.0880    -7.7650 c3         1 4R6      -0.143400
     18 C2           5.9480     2.4720    -7.6270 ca         1 4R6       0.176100
     19 C3           4.9810     3.2890    -6.9970 ca         1 4R6      -0.211000
     20 C9          10.2230     0.0430    -9.9200 ca         1 4R6      -0.133000
     21 N2           4.5340    -1.5730   -11.2440 nd         1 4R6      -0.359300
     22 O1           5.5590     1.3540    -8.3350 os         1 4R6      -0.381100
     23 O2           9.6110     2.4160    -8.1380 o          1 4R6      -0.594100
     24 O3           4.0520    -2.3550   -10.1390 os         1 4R6      -0.070700
     25 Cl1         12.5700    -0.7070   -11.1260 cl         1 4R6      -0.207000
     26 H1           7.1400     0.5810    -8.7370 hn         1 4R6       0.178000
     27 H2           4.6100     5.0540    -5.8010 ha         1 4R6       0.117000
     28 H3           7.0160     5.6600    -5.6380 ha         1 4R6       0.125000
     29 H4           8.7330     4.2670    -6.7190 ha         1 4R6       0.145000
     30 H5           7.1820    -1.4930    -9.6280 ha         1 4R6       0.116000
     31 H6          10.7560    -2.8960   -11.5860 ha         1 4R6       0.130000
     32 H7           8.3730    -3.2400   -10.9270 ha         1 4R6       0.119000
     33 H8           3.6680     1.8010    -9.1180 h1         1 4R6       0.049700
     34 H9           3.6620     0.8150    -7.6310 h1         1 4R6       0.049700
     35 H10          5.2750     0.5430   -12.5990 hc         1 4R6       0.061700
     36 H11          4.3340     1.6280   -11.5610 hc         1 4R6       0.061700
     37 H12          6.0140     1.2300   -11.1430 hc         1 4R6       0.061700
     38 H13          2.3980    -1.6880    -7.5130 hc         1 4R6       0.068367
     39 H14          3.3070    -3.1810    -7.8130 hc         1 4R6       0.068367
     40 H15          4.0740    -1.8360    -6.9490 hc         1 4R6       0.068367
     41 H16          3.9220     3.0540    -7.0490 ha         1 4R6       0.119000
     42 H17         10.7660     0.9470    -9.6690 ha         1 4R6       0.163000
@<TRIPOS>BOND
     1     1     5 1   
     2     1     6 1   
     3     1    26 1   
     4     2     3 ar  
     5     2    19 ar  
     6     2    27 1   
     7     3     4 ar  
     8     3    28 1   
     9     4    11 ar  
    10     4    29 1   
    11     5    11 1   
    12     5    23 2   
    13     6     8 ar  
    14     6    20 ar  
    15     7    12 ar  
    16     7    20 ar  
    17     7    25 1   
    18     8    13 ar  
    19     8    30 1   
    20     9    10 1   
    21     9    14 1   
    22     9    15 2   
    23    10    16 1   
    24    10    21 2   
    25    11    18 ar  
    26    12    13 ar  
    27    12    31 1   
    28    13    32 1   
    29    14    22 1   
    30    14    33 1   
    31    14    34 1   
    32    15    17 1   
    33    15    24 1   
    34    16    35 1   
    35    16    36 1   
    36    16    37 1   
    37    17    38 1   
    38    17    39 1   
    39    17    40 1   
    40    18    19 ar  
    41    18    22 1   
    42    19    41 1   
    43    20    42 1   
    44    21    24 1   
@<TRIPOS>SUBSTRUCTURE
     1 4R6         1 TEMP              0 ****  ****    0 ROOT
