@<TRIPOS>MOLECULE
4R8
   56    55     1     0     0
SMALL
No Charge or Current Charge


@<TRIPOS>ATOM
      1 C22         -9.8450    -1.3920    -1.1870 c3         1 4R8      -0.085100
      2 C21         -9.0600    -2.5270    -0.5050 c3         1 4R8      -0.043200
      3 C20         -7.8650    -2.9730    -1.3280 c2         1 4R8      -0.223200
      4 C19         -6.6110    -2.4880    -1.2740 c2         1 4R8      -0.208200
      5 C18         -6.0940    -1.3560    -0.4050 c3         1 4R8      -0.011000
      6 C17         -4.9740    -1.8380     0.4970 c2         1 4R8      -0.222200
      7 C16         -3.9150    -1.1270     0.9240 c2         1 4R8      -0.205200
      8 C15         -3.6060     0.3270     0.6210 c3         1 4R8      -0.010000
      9 C14         -3.0290     1.0240     1.8400 c2         1 4R8      -0.226200
     10 C13         -2.0330     1.9280     1.8630 c2         1 4R8      -0.199200
     11 C12         -1.2700     2.4760     0.6710 c3         1 4R8      -0.015000
     12 C11         -0.8290     3.9060     0.9240 c2         1 4R8      -0.220200
     13 C10          0.4280     4.3870     0.9230 c2         1 4R8      -0.210200
     14 C9           1.7100     3.6030     0.7030 c3         1 4R8      -0.046200
     15 C8           2.0920     3.5100    -0.7870 c3         1 4R8      -0.029200
     16 C7           3.3650     2.7180    -1.0030 c2         1 4R8      -0.248200
     17 C6           3.4440     1.5390    -1.6390 c2         1 4R8      -0.174200
     18 C5           4.7220     0.7470    -1.8510 c3         1 4R8      -0.167200
     19 C4           4.6690    -0.6230    -1.1570 c          1 4R8       0.565100
     20 O3           4.0380    -1.5590    -1.6350 o          1 4R8      -0.541100
     21 C3           5.4360    -0.7640     0.1680 c3         1 4R8      -0.148400
     22 C2           6.8680    -1.3310    -0.0480 c3         1 4R8      -0.201400
     23 C1           7.6140    -1.4490     1.2930 c          1 4R8       0.717000
     24 O1           8.2470    -0.4810     1.6850 o          1 4R8      -0.741000
     25 O2           7.4900    -2.4820     1.9320 o          1 4R8      -0.741000
     26 H221        -9.2070    -0.5120    -1.3290 hc         1 4R8       0.031033
     27 H222       -10.2170    -1.7140    -2.1670 hc         1 4R8       0.031033
     28 H223       -10.7040    -1.0980    -0.5720 hc         1 4R8       0.031033
     29 H211        -8.7470    -2.1940     0.4910 hc         1 4R8       0.043700
     30 H212        -9.7330    -3.3770    -0.3380 hc         1 4R8       0.043700
     31 H20         -8.0930    -3.7890    -2.0180 ha         1 4R8       0.162000
     32 H19         -5.8470    -2.9140    -1.9270 ha         1 4R8       0.167000
     33 H181        -5.7450    -0.5440    -1.0540 hc         1 4R8       0.049200
     34 H182        -6.8940    -0.9260     0.2070 hc         1 4R8       0.049200
     35 H17         -5.0760    -2.8820     0.8030 ha         1 4R8       0.169000
     36 H16         -3.1730    -1.6080     1.5650 ha         1 4R8       0.174000
     37 H151        -2.9070     0.3740    -0.2220 hc         1 4R8       0.047200
     38 H152        -4.5100     0.8580     0.3020 hc         1 4R8       0.047200
     39 H14         -3.5010     0.7270     2.7790 ha         1 4R8       0.166000
     40 H13         -1.7100     2.3440     2.8200 ha         1 4R8       0.171000
     41 H121        -0.4140     1.8260     0.4580 hc         1 4R8       0.056200
     42 H122        -1.8940     2.4510    -0.2300 hc         1 4R8       0.056200
     43 H11         -1.6610     4.5900     1.1020 ha         1 4R8       0.160000
     44 H10          0.5940     5.4500     1.1090 ha         1 4R8       0.159000
     45 H9C1         2.5300     4.0760     1.2570 hc         1 4R8       0.051200
     46 H9C2         1.6190     2.5900     1.1120 hc         1 4R8       0.051200
     47 H8           1.2600     3.0520    -1.3370 hc         1 4R8       0.038200
     48 H7           4.2610     3.1870    -0.5910 ha         1 4R8       0.163000
     49 H6           2.5460     1.0710    -2.0530 ha         1 4R8       0.171000
     50 H5C1         4.8650     0.5860    -2.9260 hc         1 4R8       0.062200
     51 H5C2         5.5710     1.3180    -1.4570 hc         1 4R8       0.062200
     52 H3C1         5.5420     0.2250     0.6300 hc         1 4R8       0.061200
     53 H3C2         4.8830    -1.4370     0.8350 hc         1 4R8       0.061200
     54 H2C1         6.7340    -2.3240    -0.4960 hc         1 4R8       0.031200
     55 H2C2         7.3790    -0.6170    -0.7050 hc         1 4R8       0.031200
     56 HOT          2.2120     4.5220    -1.1920 hc         1 4R8       0.038200
@<TRIPOS>BOND
     1     1     2 1   
     2     1    26 1   
     3     1    27 1   
     4     1    28 1   
     5     2     3 1   
     6     2    29 1   
     7     2    30 1   
     8     3     4 2   
     9     3    31 1   
    10     4     5 1   
    11     4    32 1   
    12     5     6 1   
    13     5    33 1   
    14     5    34 1   
    15     6     7 2   
    16     6    35 1   
    17     7     8 1   
    18     7    36 1   
    19     8     9 1   
    20     8    37 1   
    21     8    38 1   
    22     9    10 2   
    23     9    39 1   
    24    10    11 1   
    25    10    40 1   
    26    11    12 1   
    27    11    41 1   
    28    11    42 1   
    29    12    13 2   
    30    12    43 1   
    31    13    14 1   
    32    13    44 1   
    33    14    15 1   
    34    14    45 1   
    35    14    46 1   
    36    15    16 1   
    37    15    47 1   
    38    15    56 1   
    39    16    17 2   
    40    16    48 1   
    41    17    18 1   
    42    17    49 1   
    43    18    19 1   
    44    18    50 1   
    45    18    51 1   
    46    19    20 2   
    47    19    21 1   
    48    21    22 1   
    49    21    52 1   
    50    21    53 1   
    51    22    23 1   
    52    22    54 1   
    53    22    55 1   
    54    23    24 1   
    55    23    25 1   
@<TRIPOS>SUBSTRUCTURE
     1 4R8         1 TEMP              0 ****  ****    0 ROOT
