@<TRIPOS>MOLECULE
4R8
   56    55     1     0     0
SMALL
bcc


@<TRIPOS>ATOM
      1 C22        -10.5670    -2.7400     0.3590 c3         1 4R8      -0.085100
      2 C21         -9.1730    -3.0630    -0.1760 c3         1 4R8      -0.043200
      3 C20         -8.7220    -2.0620    -1.1930 c2         1 4R8      -0.173200
      4 C19         -7.7250    -1.1850    -1.0840 c2         1 4R8      -0.158200
      5 C18         -6.7880    -1.0120     0.0780 c3         1 4R8      -0.011000
      6 C17         -5.4130    -1.5010    -0.2760 c2         1 4R8      -0.172200
      7 C16         -4.3240    -0.7650    -0.4900 c2         1 4R8      -0.155200
      8 C15         -4.1990     0.7290    -0.3970 c3         1 4R8      -0.010000
      9 C14         -3.3720     1.1140     0.7960 c2         1 4R8      -0.176200
     10 C13         -2.1400     1.6190     0.8000 c2         1 4R8      -0.149200
     11 C12         -1.2820     1.9570    -0.3850 c3         1 4R8      -0.015000
     12 C11         -1.0600     3.4400    -0.4740 c2         1 4R8      -0.170200
     13 C10          0.0670     4.1020    -0.2150 c2         1 4R8      -0.160200
     14 C9           1.3830     3.5220     0.1980 c3         1 4R8      -0.046200
     15 C8           2.4390     3.6430    -0.9110 c3         1 4R8      -0.029200
     16 C7           3.7720     3.1330    -0.4650 c2         1 4R8      -0.198200
     17 C6           4.3960     2.0830    -0.9870 c2         1 4R8      -0.124200
     18 C5           5.7180     1.5670    -0.5250 c3         1 4R8      -0.167200
     19 C4           5.6730     0.1370    -0.0210 c          1 4R8       0.565100
     20 O3           4.6370    -0.4870     0.0180 o          1 4R8      -0.541100
     21 C3           6.9920    -0.4360     0.4240 c3         1 4R8      -0.148400
     22 C2           6.9320    -1.8650     0.9280 c3         1 4R8      -0.201400
     23 C1           8.2760    -2.4500     1.3890 c          1 4R8       0.927600
     24 O1           9.2900    -1.7280     1.3140 o          1 4R8      -0.846300
     25 O2           8.2320    -3.6260     1.8050 o          1 4R8      -0.846300
     26 H221       -10.5750    -1.7760     0.8700 hc         1 4R8       0.031033
     27 H222       -11.2990    -2.6920    -0.4490 hc         1 4R8       0.031033
     28 H223       -10.9040    -3.4980     1.0660 hc         1 4R8       0.031033
     29 H211        -8.4670    -3.1310     0.6540 hc         1 4R8       0.043700
     30 H212        -9.1930    -4.0540    -0.6410 hc         1 4R8       0.043700
     31 H20         -9.3010    -2.0500    -2.1130 ha         1 4R8       0.112000
     32 H19         -7.5330    -0.5230    -1.9250 ha         1 4R8       0.117000
     33 H181        -6.7630     0.0420     0.3630 hc         1 4R8       0.049200
     34 H182        -7.1490    -1.5580     0.9520 hc         1 4R8       0.049200
     35 H17         -5.3260    -2.5780    -0.3890 ha         1 4R8       0.119000
     36 H16         -3.4020    -1.2830    -0.7400 ha         1 4R8       0.124000
     37 H151        -3.7550     1.1080    -1.3200 hc         1 4R8       0.047200
     38 H152        -5.1830     1.1960    -0.3150 hc         1 4R8       0.047200
     39 H14         -3.8440     0.9260     1.7560 ha         1 4R8       0.116000
     40 H13         -1.6860     1.8350     1.7640 ha         1 4R8       0.121000
     41 H121        -0.3320     1.4260    -0.2980 hc         1 4R8       0.056200
     42 H122        -1.7430     1.6090    -1.3120 hc         1 4R8       0.056200
     43 H11         -1.9350     4.0160    -0.7610 ha         1 4R8       0.110000
     44 H10          0.0510     5.1830    -0.3300 ha         1 4R8       0.109000
     45 H9C1         1.7420     4.0520     1.0860 hc         1 4R8       0.051200
     46 H9C2         1.2860     2.4740     0.4850 hc         1 4R8       0.051200
     47 H8           2.1020     3.0940    -1.7940 hc         1 4R8       0.038200
     48 H7           4.2320     3.6640     0.3680 ha         1 4R8       0.113000
     49 H6           3.9340     1.5530    -1.8170 ha         1 4R8       0.121000
     50 H5C1         6.4550     1.6050    -1.3360 hc         1 4R8       0.062200
     51 H5C2         6.1330     2.1950     0.2700 hc         1 4R8       0.062200
     52 H3C1         7.6910    -0.3450    -0.4140 hc         1 4R8       0.061200
     53 H3C2         7.4000     0.2330     1.1890 hc         1 4R8       0.061200
     54 H2C1         6.2250    -1.9400     1.7600 hc         1 4R8       0.031200
     55 H2C2         6.5250    -2.5180     0.1500 hc         1 4R8       0.031200
     56 HOT          2.5240     4.6940    -1.2060 hc         1 4R8       0.038200
@<TRIPOS>BOND
     1     1     2 1   
     2     1    26 1   
     3     1    27 1   
     4     1    28 1   
     5     2     3 1   
     6     2    29 1   
     7     2    30 1   
     8     3     4 2   
     9     3    31 1   
    10     4     5 1   
    11     4    32 1   
    12     5     6 1   
    13     5    33 1   
    14     5    34 1   
    15     6     7 2   
    16     6    35 1   
    17     7     8 1   
    18     7    36 1   
    19     8     9 1   
    20     8    37 1   
    21     8    38 1   
    22     9    10 2   
    23     9    39 1   
    24    10    11 1   
    25    10    40 1   
    26    11    12 1   
    27    11    41 1   
    28    11    42 1   
    29    12    13 2   
    30    12    43 1   
    31    13    14 1   
    32    13    44 1   
    33    14    15 1   
    34    14    45 1   
    35    14    46 1   
    36    15    16 1   
    37    15    47 1   
    38    15    56 1   
    39    16    17 2   
    40    16    48 1   
    41    17    18 1   
    42    17    49 1   
    43    18    19 1   
    44    18    50 1   
    45    18    51 1   
    46    19    20 2   
    47    19    21 1   
    48    21    22 1   
    49    21    52 1   
    50    21    53 1   
    51    22    23 1   
    52    22    54 1   
    53    22    55 1   
    54    23    24 1   
    55    23    25 1   
@<TRIPOS>SUBSTRUCTURE
     1 4R8         1 TEMP              0 ****  ****    0 ROOT
