@<TRIPOS>MOLECULE
4R9
   26    26     1     0     0
SMALL
bcc


@<TRIPOS>ATOM
      1 O1          24.2560    12.6820    44.1600 o          1 4R9      -0.621100
      2 C1          23.6390    13.7320    43.9890 c          1 4R9       0.651100
      3 C2          23.5940    14.8480    44.9980 c3         1 4R9      -0.147400
      4 C3          22.9790    14.3920    46.3200 c3         1 4R9      -0.066400
      5 C4          21.5100    13.9850    46.1810 c3         1 4R9      -0.034100
      6 C5          20.8840    13.6760    47.5110 ca         1 4R9      -0.081300
      7 C6          20.3760    14.7000    48.3090 ca         1 4R9      -0.123500
      8 C7          19.8270    14.4300    49.5550 ca         1 4R9      -0.127000
      9 C8          19.7770    13.1240    50.0260 ca         1 4R9      -0.128000
     10 C9          20.2790    12.0950    49.2410 ca         1 4R9      -0.127000
     11 C10         20.8290    12.3710    47.9950 ca         1 4R9      -0.123500
     12 N1          22.9410    13.9390    42.8730 ns         1 4R9      -0.448400
     13 O2          22.9070    12.9940    41.8840 oh         1 4R9      -0.404100
     14 H1          24.6200    15.1810    45.1660 hc         1 4R9       0.062200
     15 H2          23.0380    15.7060    44.6120 hc         1 4R9       0.062200
     16 H3          23.5570    13.5620    46.7340 hc         1 4R9       0.058700
     17 H4          23.0610    15.2130    47.0350 hc         1 4R9       0.058700
     18 H5          20.9610    14.7960    45.6940 hc         1 4R9       0.047700
     19 H6          21.4260    13.1130    45.5270 hc         1 4R9       0.047700
     20 H7          20.4080    15.7220    47.9470 ha         1 4R9       0.129000
     21 H8          19.4350    15.2400    50.1570 ha         1 4R9       0.130000
     22 H9          19.3450    12.9100    50.9950 ha         1 4R9       0.130000
     23 H10         20.2390    11.0730    49.5960 ha         1 4R9       0.130000
     24 H11         21.2150    11.5610    47.3870 ha         1 4R9       0.129000
     25 H12         22.4340    14.7780    42.6410 hn         1 4R9       0.358500
     26 H13         23.4820    12.2870    42.2210 ho         1 4R9       0.437000
@<TRIPOS>BOND
     1     1     2 2   
     2     2     3 1   
     3     2    12 1   
     4     3     4 1   
     5     3    14 1   
     6     3    15 1   
     7     4     5 1   
     8     4    16 1   
     9     4    17 1   
    10     5     6 1   
    11     5    18 1   
    12     5    19 1   
    13     6     7 ar  
    14     6    11 ar  
    15     7     8 ar  
    16     7    20 1   
    17     8     9 ar  
    18     8    21 1   
    19     9    10 ar  
    20     9    22 1   
    21    10    11 ar  
    22    10    23 1   
    23    11    24 1   
    24    12    13 1   
    25    12    25 1   
    26    13    26 1   
@<TRIPOS>SUBSTRUCTURE
     1 4R9         1 TEMP              0 ****  ****    0 ROOT
