@<TRIPOS>MOLECULE
4R9
   26    26     1     0     0
SMALL
No Charge or Current Charge


@<TRIPOS>ATOM
      1 O1          24.3570    12.6570    44.0490 o          1 4R9      -0.621100
      2 C1          23.6500    13.6520    43.9550 c          1 4R9       0.584100
      3 C2          23.6690    14.7880    44.9870 c3         1 4R9      -0.147400
      4 C3          22.9980    14.3870    46.3250 c3         1 4R9      -0.066400
      5 C4          21.4900    14.0730    46.2050 c3         1 4R9      -0.034100
      6 C5          20.8710    13.7340    47.5550 ca         1 4R9      -0.081300
      7 C6          20.2870    14.7450    48.3430 ca         1 4R9      -0.105500
      8 C7          19.7190    14.4320    49.5910 ca         1 4R9      -0.109000
      9 C8          19.7340    13.1060    50.0580 ca         1 4R9      -0.110000
     10 C9          20.3160    12.0950    49.2760 ca         1 4R9      -0.109000
     11 C10         20.8840    12.4070    48.0290 ca         1 4R9      -0.105500
     12 N1          22.8110    13.8340    42.8680 ns         1 4R9      -0.381400
     13 O2          22.8610    12.9230    41.7450 oh         1 4R9      -0.443100
     14 H1          24.7140    15.0440    45.1960 hc         1 4R9       0.062200
     15 H2          23.1530    15.6700    44.5880 hc         1 4R9       0.062200
     16 H3          23.5170    13.5160    46.7450 hc         1 4R9       0.058700
     17 H4          23.1320    15.2060    47.0440 hc         1 4R9       0.058700
     18 H5          20.9760    14.9340    45.7610 hc         1 4R9       0.047700
     19 H6          21.3430    13.2370    45.5100 hc         1 4R9       0.047700
     20 H7          20.2740    15.7740    47.9910 ha         1 4R9       0.111000
     21 H8          19.2700    15.2160    50.1960 ha         1 4R9       0.112000
     22 H9          19.2950    12.8640    51.0230 ha         1 4R9       0.112000
     23 H10         20.3290    11.0680    49.6370 ha         1 4R9       0.112000
     24 H11         21.3350    11.6190    47.4310 ha         1 4R9       0.111000
     25 H12         22.3590    14.7340    42.7110 hn         1 4R9       0.358500
     26 H13         23.6770    12.3950    41.9330 ho         1 4R9       0.476000
@<TRIPOS>BOND
     1     1     2 2   
     2     2     3 1   
     3     2    12 1   
     4     3     4 1   
     5     3    14 1   
     6     3    15 1   
     7     4     5 1   
     8     4    16 1   
     9     4    17 1   
    10     5     6 1   
    11     5    18 1   
    12     5    19 1   
    13     6     7 ar  
    14     6    11 ar  
    15     7     8 ar  
    16     7    20 1   
    17     8     9 ar  
    18     8    21 1   
    19     9    10 ar  
    20     9    22 1   
    21    10    11 ar  
    22    10    23 1   
    23    11    24 1   
    24    12    13 1   
    25    12    25 1   
    26    13    26 1   
@<TRIPOS>SUBSTRUCTURE
     1 4R9         1 TEMP              0 ****  ****    0 ROOT
