@<TRIPOS>MOLECULE
4RB
   41    43     1     0     0
SMALL
No Charge or Current Charge


@<TRIPOS>ATOM
      1 C1G         -2.8460    -1.6100    -0.4120 ca         1 4RB      -0.115500
      2 C1E         -3.9860    -0.7890    -0.4210 ca         1 4RB      -0.099000
      3 C1R         -3.9530     0.5040     0.1510 ca         1 4RB      -0.112600
      4 C1Q         -5.1880     1.3950     0.1430 c          1 4RB       0.711600
      5 O1D         -5.1130     2.5050     0.6520 o          1 4RB      -0.719000
      6 O1B         -6.2140     0.9720    -0.3720 o          1 4RB      -0.719000
      7 C1F         -2.7420     0.9440     0.7330 ca         1 4RB      -0.099000
      8 C1H         -1.6030     0.1210     0.7400 ca         1 4RB      -0.115500
      9 C1S         -1.6390    -1.1660     0.1640 ca         1 4RB      -0.070800
     10 C1U         -0.4560    -2.0400     0.1680 cc         1 4RB      -0.016300
     11 C1K         -0.5200    -3.4170     0.2490 cd         1 4RB      -0.080400
     12 N1N          0.7580    -3.9690     0.2780 nd         1 4RB      -0.273600
     13 C1V          1.5900    -2.9420     0.2200 cc         1 4RB      -0.189000
     14 C1J          3.0090    -2.9210     0.2000 cc         1 4RB       0.013000
     15 C1I          3.6090    -1.6910     0.1130 cd         1 4RB      -0.227000
     16 N1X          0.8890    -1.7650     0.1740 na         1 4RB       0.275900
     17 N1O          1.4330    -0.5010     0.0510 nc         1 4RB      -0.572800
     18 C1T          2.7630    -0.5300     0.0380 cd         1 4RB       0.589900
     19 N1P          3.3890     0.6740    -0.0670 nu         1 4RB      -0.944100
     20 C1W          2.7950     2.0280     0.0110 c3         1 4RB       0.244500
     21 C1L          2.7380     2.6690    -1.4020 c3         1 4RB      -0.082400
     22 C1A          1.7710     1.9690    -2.3830 c3         1 4RB      -0.089100
     23 C1M          3.6080     2.8990     1.0240 c3         1 4RB       0.138600
     24 O1C          5.0190     2.9190     0.7140 oh         1 4RB      -0.671000
     25 H1G         -2.9050    -2.5950    -0.8700 ha         1 4RB       0.096500
     26 H1E         -4.9000    -1.1620    -0.8780 ha         1 4RB       0.127000
     27 H1F         -2.6800     1.9310     1.1880 ha         1 4RB       0.127000
     28 H1H         -0.6970     0.4870     1.2120 ha         1 4RB       0.096500
     29 H1K         -1.4090    -4.0400     0.2970 h4         1 4RB       0.226000
     30 H1J          3.5780    -3.8450     0.2460 ha         1 4RB       0.132000
     31 H1I          4.6880    -1.6030     0.0900 ha         1 4RB       0.118000
     32 HN1P         4.4010     0.6310     0.0250 hn         1 4RB       0.497000
     33 H1W          1.7650     1.9850     0.3980 h1         1 4RB       0.091700
     34 H1L          2.4210     3.7140    -1.3000 hc         1 4RB       0.042700
     35 H1LA         3.7440     2.6900    -1.8400 hc         1 4RB       0.042700
     36 H1A          1.7340     2.5130    -3.3340 hc         1 4RB       0.040700
     37 H1AA         2.0970     0.9430    -2.5910 hc         1 4RB       0.040700
     38 H1AB         0.7570     1.9330    -1.9680 hc         1 4RB       0.040700
     39 H1M          3.2020     3.9190     1.0230 h1         1 4RB       0.031700
     40 H1MA         3.4550     2.4910     2.0320 h1         1 4RB       0.031700
     41 HO1C         5.4540     3.4830     1.3920 ho         1 4RB       0.440000
@<TRIPOS>BOND
     1     1     2 ar  
     2     1     9 ar  
     3     1    25 1   
     4     2     3 ar  
     5     2    26 1   
     6     3     4 1   
     7     3     7 ar  
     8     4     5 1   
     9     4     6 1   
    10     7     8 ar  
    11     7    27 1   
    12     8     9 ar  
    13     8    28 1   
    14     9    10 1   
    15    10    11 2   
    16    10    16 1   
    17    11    12 1   
    18    11    29 1   
    19    12    13 2   
    20    13    14 1   
    21    13    16 1   
    22    14    15 2   
    23    14    30 1   
    24    15    18 1   
    25    15    31 1   
    26    16    17 1   
    27    17    18 2   
    28    18    19 1   
    29    19    20 1   
    30    19    32 1   
    31    20    21 1   
    32    20    23 1   
    33    20    33 1   
    34    21    22 1   
    35    21    34 1   
    36    21    35 1   
    37    22    36 1   
    38    22    37 1   
    39    22    38 1   
    40    23    24 1   
    41    23    39 1   
    42    23    40 1   
    43    24    41 1   
@<TRIPOS>SUBSTRUCTURE
     1 4RB         1 TEMP              0 ****  ****    0 ROOT
