@<TRIPOS>MOLECULE
4RB
   41    43     1     0     0
SMALL
bcc


@<TRIPOS>ATOM
      1 C1G         -2.8320    -1.6140    -0.1280 ca         1 4RB      -0.133500
      2 C1E         -3.9320    -0.7780    -0.1430 ca         1 4RB      -0.117000
      3 C1R         -3.8030     0.5910     0.0900 ca         1 4RB      -0.112600
      4 C1Q         -5.0150     1.5100     0.0650 c          1 4RB       0.922200
      5 O1D         -4.8000     2.7230     0.2520 o          1 4RB      -0.824300
      6 O1B         -6.1190     0.9700    -0.1400 o          1 4RB      -0.824300
      7 C1F         -2.5270     1.0830     0.3430 ca         1 4RB      -0.117000
      8 C1H         -1.4160     0.2530     0.3680 ca         1 4RB      -0.133500
      9 C1S         -1.5460    -1.1200     0.1330 ca         1 4RB      -0.070800
     10 C1U         -0.4390    -2.0670     0.1590 cc         1 4RB      -0.016300
     11 C1K         -0.4760    -3.4550     0.2030 cd         1 4RB      -0.030400
     12 N1N          0.7530    -3.9980     0.1920 nd         1 4RB      -0.273600
     13 C1V          1.5820    -2.9670     0.1420 cc         1 4RB      -0.138300
     14 C1J          2.9900    -2.9080     0.0890 cc         1 4RB      -0.005000
     15 C1I          3.5800    -1.6930     0.0310 cd         1 4RB      -0.310300
     16 N1X          0.8990    -1.7800     0.1290 na         1 4RB       0.225200
     17 N1O          1.4480    -0.5580     0.0760 nc         1 4RB      -0.572800
     18 C1T          2.7560    -0.5140     0.0320 cd         1 4RB       0.655200
     19 N1P          3.3650     0.6880    -0.0090 nu         1 4RB      -0.888900
     20 C1W          2.7070     1.9740     0.1020 c3         1 4RB       0.244500
     21 C1L          2.5580     2.6750    -1.2510 c3         1 4RB      -0.082400
     22 C1A          1.7530     1.8760    -2.2660 c3         1 4RB      -0.089100
     23 C1M          3.4510     2.8270     1.1180 c3         1 4RB       0.115400
     24 O1C          4.7800     3.0090     0.6800 oh         1 4RB      -0.608800
     25 H1G         -2.9770    -2.6670    -0.3330 ha         1 4RB       0.114500
     26 H1E         -4.9100    -1.1920    -0.3490 ha         1 4RB       0.145000
     27 H1F         -2.3940     2.1420     0.5260 ha         1 4RB       0.145000
     28 H1H         -0.4450     0.6780     0.5710 ha         1 4RB       0.114500
     29 H1K         -1.3590    -4.0730     0.2520 h4         1 4RB       0.176000
     30 H1J          3.5640    -3.8240     0.0950 ha         1 4RB       0.150000
     31 H1I          4.6550    -1.5910    -0.0080 ha         1 4RB       0.136000
     32 HN1P         4.3710     0.6930    -0.0440 hn         1 4RB       0.441800
     33 H1W          1.7100     1.8040     0.5130 h1         1 4RB       0.091700
     34 H1L          2.0680     3.6370    -1.0720 hc         1 4RB       0.042700
     35 H1LA         3.5450     2.9040    -1.6600 hc         1 4RB       0.042700
     36 H1A          1.6220     2.4450    -3.1870 hc         1 4RB       0.040700
     37 H1AA         2.2520     0.9430    -2.5260 hc         1 4RB       0.040700
     38 H1AB         0.7630     1.6240    -1.8830 hc         1 4RB       0.040700
     39 H1M          2.9250     3.7840     1.2250 h1         1 4RB       0.031700
     40 H1MA         3.4170     2.3260     2.0930 h1         1 4RB       0.031700
     41 HO1C         5.2920     3.3740     1.4070 ho         1 4RB       0.401000
@<TRIPOS>BOND
     1     1     2 ar  
     2     1     9 ar  
     3     1    25 1   
     4     2     3 ar  
     5     2    26 1   
     6     3     4 1   
     7     3     7 ar  
     8     4     5 1   
     9     4     6 1   
    10     7     8 ar  
    11     7    27 1   
    12     8     9 ar  
    13     8    28 1   
    14     9    10 1   
    15    10    11 2   
    16    10    16 1   
    17    11    12 1   
    18    11    29 1   
    19    12    13 2   
    20    13    14 1   
    21    13    16 1   
    22    14    15 2   
    23    14    30 1   
    24    15    18 1   
    25    15    31 1   
    26    16    17 1   
    27    17    18 2   
    28    18    19 1   
    29    19    20 1   
    30    19    32 1   
    31    20    21 1   
    32    20    23 1   
    33    20    33 1   
    34    21    22 1   
    35    21    34 1   
    36    21    35 1   
    37    22    36 1   
    38    22    37 1   
    39    22    38 1   
    40    23    24 1   
    41    23    39 1   
    42    23    40 1   
    43    24    41 1   
@<TRIPOS>SUBSTRUCTURE
     1 4RB         1 TEMP              0 ****  ****    0 ROOT
