@<TRIPOS>MOLECULE
4RC
   46    49     1     0     0
SMALL
No Charge or Current Charge


@<TRIPOS>ATOM
      1 C1          -9.0580    -0.7030    -0.5110 ca         1 4RC      -0.209000
      2 N2           1.5600     0.3670    -0.1330 n7         1 4RC      -0.870400
      3 C3          -6.6780    -0.8380    -0.6970 ca         1 4RC       0.055400
      4 N4          -5.2770     0.5570     0.1820 na         1 4RC      -0.452300
      5 C5          -2.2830     0.3840    -0.0060 c3         1 4RC       0.224800
      6 C6          -0.8570    -0.0620    -0.3760 c3         1 4RC      -0.096400
      7 C7           0.2180     0.8510     0.2390 c3         1 4RC       0.170800
      8 C9           2.8480     2.5000    -0.0350 c6         1 4RC      -0.126400
      9 C14          5.1640    -1.9270     0.0650 ca         1 4RC       0.065000
     10 C13          6.3690    -1.2750    -0.2360 ca         1 4RC      -0.043000
     11 C12          6.4060     0.1270    -0.3110 ca         1 4RC       0.035000
     12 Cl           7.9450     0.9190    -0.6780 cl         1 4RC      -0.209000
     13 C15          3.9930    -1.1840     0.2870 ca         1 4RC      -0.035000
     14 C16          4.0120     0.2260     0.1980 ca         1 4RC      -0.152300
     15 C11          5.2310     0.8830    -0.0890 ca         1 4RC       0.346000
     16 N3           5.2600     2.2830    -0.1490 nu         1 4RC      -0.957200
     17 C10          4.1870     3.1200     0.3960 c6         1 4RC       0.225800
     18 C8           2.7330     1.0380     0.4690 c6         1 4RC       0.234800
     19 C4          -4.6150    -0.4280    -0.5040 cc         1 4RC       0.666700
     20 N           -5.4220    -1.3180    -1.0690 nd         1 4RC      -0.636100
     21 C17         -6.5980     0.3100     0.0700 ca         1 4RC       0.359500
     22 N5          -7.6520     0.9810     0.5620 nb         1 4RC      -0.701000
     23 C           -8.8660     0.4610     0.2620 ca         1 4RC       0.566200
     24 F           -9.9230     1.1370     0.7580 f          1 4RC      -0.230200
     25 C2          -7.9300    -1.3840    -1.0130 ca         1 4RC      -0.014000
     26 H1         -10.0620    -1.0620    -0.7120 ha         1 4RC       0.141000
     27 H2           1.6540     0.4070    -1.1540 hn         1 4RC       0.421000
     28 H4          -4.8510     1.3200     0.6760 hn         1 4RC       0.368000
     29 H5          -2.3930     0.3770     1.0870 h1         1 4RC       0.038200
     30 H6          -2.4430     1.4130    -0.3570 h1         1 4RC       0.038200
     31 H7          -0.6980    -1.0890    -0.0270 hc         1 4RC       0.061200
     32 H8          -0.7500    -0.0630    -1.4670 hc         1 4RC       0.061200
     33 H9           0.1040     0.8520     1.3320 h1         1 4RC       0.031200
     34 H10          0.0620     1.8780    -0.1180 h1         1 4RC       0.031200
     35 H11          2.0230     3.1070     0.3610 hc         1 4RC       0.056200
     36 H12          2.7680     2.5310    -1.1300 hc         1 4RC       0.056200
     37 H13          7.2720    -1.8540    -0.4060 ha         1 4RC       0.142000
     38 H14          3.0710    -1.7070     0.5300 ha         1 4RC       0.146000
     39 H15          6.1820     2.7000    -0.3050 hn         1 4RC       0.493000
     40 H16          4.2670     4.1540     0.0290 h1         1 4RC       0.042200
     41 H17          4.2390     3.1460     1.4950 h1         1 4RC       0.042200
     42 H18          2.6000     1.0640     1.5620 h1         1 4RC       0.063700
     43 H21         -8.0220    -2.2850    -1.6140 ha         1 4RC       0.137000
     44 N1          -3.2760    -0.5080    -0.6120 nu         1 4RC      -0.896400
     45 Cl1          5.1210    -3.6830     0.1730 cl         1 4RC      -0.202000
     46 H19         -2.9640    -1.3170    -1.1440 hn         1 4RC       0.513000
@<TRIPOS>BOND
     1     1    23 ar  
     2     1    25 ar  
     3     1    26 1   
     4     2     7 1   
     5     2    18 1   
     6     2    27 1   
     7     3    20 1   
     8     3    21 ar  
     9     3    25 ar  
    10     4    19 1   
    11     4    21 1   
    12     4    28 1   
    13     5     6 1   
    14     5    29 1   
    15     5    30 1   
    16     5    44 1   
    17     6     7 1   
    18     6    31 1   
    19     6    32 1   
    20     7    33 1   
    21     7    34 1   
    22     8    17 1   
    23     8    18 1   
    24     8    35 1   
    25     8    36 1   
    26     9    10 ar  
    27     9    13 ar  
    28     9    45 1   
    29    10    11 ar  
    30    10    37 1   
    31    11    12 1   
    32    11    15 ar  
    33    13    14 ar  
    34    13    38 1   
    35    14    15 ar  
    36    14    18 1   
    37    15    16 1   
    38    16    17 1   
    39    16    39 1   
    40    17    40 1   
    41    17    41 1   
    42    18    42 1   
    43    19    20 2   
    44    19    44 1   
    45    21    22 ar  
    46    22    23 ar  
    47    23    24 1   
    48    25    43 1   
    49    44    46 1   
@<TRIPOS>SUBSTRUCTURE
     1 4RC         1 TEMP              0 ****  ****    0 ROOT
