@<TRIPOS>MOLECULE
4RC
   46    49     1     0     0
SMALL
bcc


@<TRIPOS>ATOM
      1 C1          -8.9580    -0.4690    -0.2240 ca         1 4RC      -0.292300
      2 N2           1.5440     0.2530    -0.3140 n7         1 4RC      -0.815200
      3 C3          -6.6430    -0.8980    -0.5480 ca         1 4RC      -0.009900
      4 N4          -5.0850     0.5670    -0.0210 na         1 4RC      -0.402000
      5 C5          -2.2390     0.1690    -0.1130 c3         1 4RC       0.224800
      6 C6          -0.8360    -0.2360    -0.5310 c3         1 4RC      -0.096400
      7 C7           0.2140     0.6880     0.0650 c3         1 4RC       0.170800
      8 C9           2.7630     2.4450    -0.1660 c6         1 4RC      -0.126400
      9 C14          5.1630    -1.8010    -0.1050 ca         1 4RC      -0.026600
     10 C13          6.3640    -1.1180    -0.1210 ca         1 4RC      -0.061000
     11 C12          6.3410     0.2610    -0.0190 ca         1 4RC      -0.056600
     12 CL           7.8520     1.1180    -0.0590 cl         1 4RC      -0.117400
     13 C15          3.9650    -1.1170     0.0130 ca         1 4RC      -0.053000
     14 C16          3.9430     0.2630     0.1270 ca         1 4RC      -0.152300
     15 C11          5.1500     0.9940     0.1060 ca         1 4RC       0.207600
     16 N3           5.1600     2.3550     0.1680 nu         1 4RC      -0.763600
     17 C10          3.9620     3.0960     0.4920 c6         1 4RC       0.225800
     18 C8           2.6240     0.9950     0.3030 c6         1 4RC       0.234800
     19 C4          -4.5400    -0.5770    -0.5400 cc         1 4RC       0.666700
     20 N           -5.4400    -1.4770    -0.8640 nd         1 4RC      -0.636100
     21 C17         -6.4410     0.3880    -0.0160 ca         1 4RC       0.424800
     22 N5          -7.3680     1.2270     0.3960 nb         1 4RC      -0.701000
     23 C           -8.5900     0.7700     0.2770 ca         1 4RC       0.631500
     24 F           -9.5510     1.6090     0.6900 f          1 4RC      -0.230200
     25 C2          -7.9540    -1.3340    -0.6530 ca         1 4RC      -0.032000
     26 H1         -10.0000    -0.7500    -0.2790 ha         1 4RC       0.159000
     27 H2           1.6430     0.2860    -1.3230 hn         1 4RC       0.365800
     28 H4          -4.5960     1.3840     0.3090 hn         1 4RC       0.317700
     29 H5          -2.3140     0.1590     0.9810 h1         1 4RC       0.038200
     30 H6          -2.4300     1.1940    -0.4410 h1         1 4RC       0.038200
     31 H7          -0.6350    -1.2620    -0.2080 hc         1 4RC       0.061200
     32 H8          -0.7660    -0.2210    -1.6230 hc         1 4RC       0.061200
     33 H9           0.1470     0.6590     1.1570 h1         1 4RC       0.031200
     34 H10         -0.0090     1.7240    -0.2310 h1         1 4RC       0.031200
     35 H11          1.8650     3.0100     0.0860 hc         1 4RC       0.056200
     36 H12          2.8750     2.4730    -1.2540 hc         1 4RC       0.056200
     37 H13          7.3060    -1.6410    -0.2160 ha         1 4RC       0.160000
     38 H14          3.0250    -1.6530     0.0180 ha         1 4RC       0.164000
     39 H15          6.0330     2.7970     0.4040 hn         1 4RC       0.437800
     40 H16          4.0880     4.1180     0.1340 h1         1 4RC       0.042200
     41 H17          3.8040     3.1530     1.5760 h1         1 4RC       0.042200
     42 H18          2.4080     1.0190     1.3790 h1         1 4RC       0.063700
     43 H21         -8.2010    -2.3090    -1.0510 ha         1 4RC       0.155000
     44 N1          -3.2160    -0.7170    -0.7130 nu         1 4RC      -0.841200
     45 CL1          5.1620    -3.5340    -0.2350 cl         1 4RC      -0.110400
     46 H19         -2.9180    -1.6540    -0.9350 hn         1 4RC       0.457800
@<TRIPOS>BOND
     1     1    23 ar  
     2     1    25 ar  
     3     1    26 1   
     4     2     7 1   
     5     2    18 1   
     6     2    27 1   
     7     3    20 1   
     8     3    21 ar  
     9     3    25 ar  
    10     4    19 1   
    11     4    21 1   
    12     4    28 1   
    13     5     6 1   
    14     5    29 1   
    15     5    30 1   
    16     5    44 1   
    17     6     7 1   
    18     6    31 1   
    19     6    32 1   
    20     7    33 1   
    21     7    34 1   
    22     8    17 1   
    23     8    18 1   
    24     8    35 1   
    25     8    36 1   
    26     9    10 ar  
    27     9    13 ar  
    28     9    45 1   
    29    10    11 ar  
    30    10    37 1   
    31    11    12 1   
    32    11    15 ar  
    33    13    14 ar  
    34    13    38 1   
    35    14    15 ar  
    36    14    18 1   
    37    15    16 1   
    38    16    17 1   
    39    16    39 1   
    40    17    40 1   
    41    17    41 1   
    42    18    42 1   
    43    19    20 2   
    44    19    44 1   
    45    21    22 ar  
    46    22    23 ar  
    47    23    24 1   
    48    25    43 1   
    49    44    46 1   
@<TRIPOS>SUBSTRUCTURE
     1 4RC         1 TEMP              0 ****  ****    0 ROOT
