@<TRIPOS>MOLECULE
4RD
   45    48     1     0     0
SMALL
bcc


@<TRIPOS>ATOM
      1 C1          -8.7330     0.9140     0.6810 ca         1 4RD      -0.293300
      2 C2          -7.4500     1.4400     0.8330 ca         1 4RD      -0.056000
      3 C3          -6.4160     0.6650     0.3620 ca         1 4RD      -0.233500
      4 C4          -4.5650    -0.3260    -0.2840 cc         1 4RD       0.680700
      5 C5          -2.2280     0.3430     0.0440 c3         1 4RD       0.227800
      6 C6          -0.8550    -0.1220    -0.4100 c3         1 4RD      -0.097400
      7 C7           0.2450     0.7590     0.1610 c3         1 4RD       0.169800
      8 C8           2.6630     0.9780     0.3430 c6         1 4RD       0.232800
      9 C9           2.8570     2.4150    -0.1420 c6         1 4RD      -0.153400
     10 C10          4.1360     2.9780     0.4300 c6         1 4RD       0.143400
     11 C11          5.1630     0.8920    -0.0040 ca         1 4RD       0.155100
     12 C15          3.9460    -1.1810     0.0830 ca         1 4RD      -0.061000
     13 C16          3.9520     0.2080     0.1340 ca         1 4RD      -0.157300
     14 C14          5.1230    -1.8810    -0.1020 ca         1 4RD      -0.008600
     15 C13          6.3320    -1.2220    -0.2500 ca         1 4RD      -0.076000
     16 C12          6.3370     0.1600    -0.2000 ca         1 4RD      -0.012600
     17 CL           7.8270     1.0120    -0.3870 cl         1 4RD      -0.082400
     18 O            5.2780     2.2260     0.0230 os         1 4RD      -0.300900
     19 N2           1.5480     0.2690    -0.2450 n7         1 4RD      -0.811200
     20 N1          -3.2590    -0.5110    -0.5090 nu         1 4RD      -0.845200
     21 N           -5.0470     0.7970     0.3150 na         1 4RD      -0.294300
     22 N3          -5.5130    -1.1800    -0.6280 nd         1 4RD      -0.712700
     23 C17         -6.6690    -0.5860    -0.2360 ca         1 4RD       0.608300
     24 N4          -7.8930    -1.0830    -0.3770 nb         1 4RD      -0.662000
     25 C           -8.8570    -0.3280     0.0790 ca         1 4RD       0.633500
     26 F          -10.0920    -0.8370    -0.0630 f          1 4RD      -0.230200
     27 H1          -9.6040     1.4550     1.0210 ha         1 4RD       0.159000
     28 H2          -7.2930     2.4030     1.2980 ha         1 4RD       0.140000
     29 H3          -2.2710     0.3460     1.1400 h1         1 4RD       0.036700
     30 H4          -2.3900     1.3720    -0.2890 h1         1 4RD       0.036700
     31 H5          -0.6900    -1.1550    -0.0910 hc         1 4RD       0.063200
     32 H6          -0.8110    -0.1090    -1.5030 hc         1 4RD       0.063200
     33 H7           0.0590     1.8020    -0.1320 h1         1 4RD       0.031700
     34 H8           0.2000     0.7330     1.2540 h1         1 4RD       0.031700
     35 H9           2.4750     1.0130     1.4240 h1         1 4RD       0.067700
     36 H10          2.8870     2.4420    -1.2360 hc         1 4RD       0.060200
     37 H11          2.0260     3.0460     0.1770 hc         1 4RD       0.060200
     38 H12          4.3170     3.9960     0.0880 h1         1 4RD       0.061200
     39 H13          4.0920     2.9940     1.5240 h1         1 4RD       0.061200
     40 H14          3.0030    -1.7010     0.1790 ha         1 4RD       0.166000
     41 H15          7.2540    -1.7660    -0.4020 ha         1 4RD       0.164000
     42 H16          1.6260     0.2910    -1.2570 hn         1 4RD       0.366800
     43 H18         -2.9980    -1.4350    -0.8140 hn         1 4RD       0.465800
     44 H19         -4.5110     1.5730     0.6700 hn         1 4RD       0.307700
     45 CL1          5.0930    -3.6140    -0.1560 cl         1 4RD      -0.102400
@<TRIPOS>BOND
     1     1     2 ar  
     2     1    25 ar  
     3     1    27 1   
     4     2     3 ar  
     5     2    28 1   
     6     3    21 1   
     7     3    23 ar  
     8     4    20 1   
     9     4    21 1   
    10     4    22 2   
    11     5     6 1   
    12     5    20 1   
    13     5    29 1   
    14     5    30 1   
    15     6     7 1   
    16     6    31 1   
    17     6    32 1   
    18     7    19 1   
    19     7    33 1   
    20     7    34 1   
    21     8     9 1   
    22     8    13 1   
    23     8    19 1   
    24     8    35 1   
    25     9    10 1   
    26     9    36 1   
    27     9    37 1   
    28    10    18 1   
    29    10    38 1   
    30    10    39 1   
    31    11    13 ar  
    32    11    16 ar  
    33    11    18 1   
    34    12    13 ar  
    35    12    14 ar  
    36    12    40 1   
    37    14    15 ar  
    38    14    45 1   
    39    15    16 ar  
    40    15    41 1   
    41    16    17 1   
    42    19    42 1   
    43    20    43 1   
    44    21    44 1   
    45    22    23 1   
    46    23    24 ar  
    47    24    25 ar  
    48    25    26 1   
@<TRIPOS>SUBSTRUCTURE
     1 4RD         1 TEMP              0 ****  ****    0 ROOT
