@<TRIPOS>MOLECULE
4RD
   45    48     1     0     0
SMALL
No Charge or Current Charge


@<TRIPOS>ATOM
      1 C1          -8.9200     0.6980     0.5540 ca         1 4RD      -0.210000
      2 C2          -7.6660     1.2630     0.8420 ca         1 4RD      -0.038000
      3 C3          -6.5700     0.5580     0.3380 ca         1 4RD      -0.168200
      4 C4          -4.6170    -0.2000    -0.2460 cc         1 4RD       0.680700
      5 C5          -2.2450     0.5360     0.1720 c3         1 4RD       0.227800
      6 C6          -0.8470     0.0390    -0.2350 c3         1 4RD      -0.097400
      7 C7           0.2770     0.9190     0.3390 c3         1 4RD       0.169800
      8 C8           2.7990     1.0200     0.4890 c6         1 4RD       0.232800
      9 C9           2.9440     2.4640    -0.0350 c6         1 4RD      -0.153400
     10 C10          4.3450     2.9960     0.3020 c6         1 4RD       0.166600
     11 C11          5.2530     0.7990    -0.2270 ca         1 4RD       0.155100
     12 C15          3.9930    -1.2280     0.2770 ca         1 4RD      -0.043000
     13 C16          4.0400     0.1800     0.1650 ca         1 4RD      -0.157300
     14 C14          5.1230    -2.0050    -0.0280 ca         1 4RD       0.083000
     15 C13          6.3130    -1.3900    -0.4430 ca         1 4RD      -0.058000
     16 C12          6.3800     0.0090    -0.5430 ca         1 4RD       0.079000
     17 Cl           7.8940     0.7600    -1.0520 cl         1 4RD      -0.174000
     18 O            5.3510     2.1750    -0.3200 os         1 4RD      -0.324100
     19 N2           1.5890     0.3850    -0.0680 n7         1 4RD      -0.866400
     20 N1          -3.2850    -0.3250    -0.3980 nu         1 4RD      -0.900400
     21 N           -5.2380     0.8220     0.4310 na         1 4RD      -0.344600
     22 N3          -5.4560    -1.0890    -0.7610 nd         1 4RD      -0.712700
     23 C17         -6.7030    -0.6050    -0.3880 ca         1 4RD       0.543000
     24 N4          -7.8910    -1.1540    -0.6690 nb         1 4RD      -0.662000
     25 C           -8.9740    -0.4960    -0.1960 ca         1 4RD       0.568200
     26 F          -10.1640    -1.0630    -0.4880 f          1 4RD      -0.230200
     27 H1          -9.8380     1.1650     0.8980 ha         1 4RD       0.141000
     28 H2          -7.5580     2.1820     1.4150 ha         1 4RD       0.122000
     29 H3          -2.3230     0.5410     1.2680 h1         1 4RD       0.036700
     30 H4          -2.3800     1.5670    -0.1830 h1         1 4RD       0.036700
     31 H5          -0.7120    -0.9910     0.1180 hc         1 4RD       0.063200
     32 H6          -0.7720     0.0250    -1.3290 hc         1 4RD       0.063200
     33 H7           0.1460     1.9480    -0.0220 h1         1 4RD       0.031700
     34 H8           0.1950     0.9330     1.4350 h1         1 4RD       0.031700
     35 H9           2.7090     1.0560     1.5870 h1         1 4RD       0.067700
     36 H10          2.7970     2.4960    -1.1230 hc         1 4RD       0.060200
     37 H11          2.1830     3.1150     0.4130 hc         1 4RD       0.060200
     38 H12          4.4600     4.0310    -0.0500 h1         1 4RD       0.061200
     39 H13          4.4990     2.9860     1.3900 h1         1 4RD       0.061200
     40 H14          3.0790    -1.7230     0.5950 ha         1 4RD       0.148000
     41 H15          7.1840    -1.9950    -0.6810 ha         1 4RD       0.146000
     42 H16          1.6540     0.4100    -1.0920 hn         1 4RD       0.422000
     43 H18         -3.0200    -1.1680    -0.9020 hn         1 4RD       0.521000
     44 H19         -4.7790     1.5940     0.8910 hn         1 4RD       0.358000
     45 Cl1          5.0440    -3.7570     0.1070 cl         1 4RD      -0.194000
@<TRIPOS>BOND
     1     1     2 ar  
     2     1    25 ar  
     3     1    27 1   
     4     2     3 ar  
     5     2    28 1   
     6     3    21 1   
     7     3    23 ar  
     8     4    20 1   
     9     4    21 1   
    10     4    22 2   
    11     5     6 1   
    12     5    20 1   
    13     5    29 1   
    14     5    30 1   
    15     6     7 1   
    16     6    31 1   
    17     6    32 1   
    18     7    19 1   
    19     7    33 1   
    20     7    34 1   
    21     8     9 1   
    22     8    13 1   
    23     8    19 1   
    24     8    35 1   
    25     9    10 1   
    26     9    36 1   
    27     9    37 1   
    28    10    18 1   
    29    10    38 1   
    30    10    39 1   
    31    11    13 ar  
    32    11    16 ar  
    33    11    18 1   
    34    12    13 ar  
    35    12    14 ar  
    36    12    40 1   
    37    14    15 ar  
    38    14    45 1   
    39    15    16 ar  
    40    15    41 1   
    41    16    17 1   
    42    19    42 1   
    43    20    43 1   
    44    21    44 1   
    45    22    23 1   
    46    23    24 ar  
    47    24    25 ar  
    48    25    26 1   
@<TRIPOS>SUBSTRUCTURE
     1 4RD         1 TEMP              0 ****  ****    0 ROOT
