@<TRIPOS>MOLECULE
4RF
  155   154     1     0     0
SMALL
bcc


@<TRIPOS>ATOM
      1 C10         -9.5610    -4.5190     0.4080 c3         1 4RF      -0.074400
      2 C13         -5.6640    -4.3130     0.2310 c3         1 4RF      -0.075900
      3 C15         -3.1690    -4.5310     0.4980 c3         1 4RF      -0.137400
      4 C20          1.4790    -4.3240     0.8470 c3         1 4RF       0.143100
      5 C22          0.8220    -2.1010     0.2400 c          1 4RF       0.656100
      6 C24          0.5530    -0.7440     0.8310 c3         1 4RF      -0.137400
      7 C26         -0.4990     1.5270     0.5690 c3         1 4RF      -0.076400
      8 C28         -1.6040     3.8030     0.3720 c3         1 4RF      -0.075400
      9 C01        -20.7470    -2.7240    -1.4340 c3         1 4RF      -0.088100
     10 C02        -19.6280    -3.4520    -0.7020 c3         1 4RF      -0.074400
     11 C03        -18.2410    -3.0040    -1.1450 c3         1 4RF      -0.075400
     12 C04        -17.1120    -3.7240    -0.4200 c3         1 4RF      -0.074400
     13 C05        -15.7260    -3.2750    -0.8660 c3         1 4RF      -0.074400
     14 C06        -14.5950    -3.9930    -0.1420 c3         1 4RF      -0.074400
     15 C07        -13.2110    -3.5410    -0.5890 c3         1 4RF      -0.074400
     16 C08        -12.0780    -4.2580     0.1350 c3         1 4RF      -0.074400
     17 C09        -10.6950    -3.8040    -0.3140 c3         1 4RF      -0.074400
     18 C11         -8.1790    -4.0630    -0.0420 c3         1 4RF      -0.074400
     19 C12         -7.0430    -4.7750     0.6810 c3         1 4RF      -0.074400
     20 C14         -4.5310    -5.0210     0.9620 c3         1 4RF      -0.068400
     21 C16         -2.0140    -5.1820     1.2060 c          1 4RF       0.644600
     22 O17         -2.0960    -6.0360     2.0510 o          1 4RF      -0.532000
     23 O18         -0.8500    -4.6910     0.7810 os         1 4RF      -0.422900
     24 C19          0.3420    -5.1630     1.3960 c3         1 4RF       0.131400
     25 O21          1.2320    -2.9590     1.1790 os         1 4RF      -0.426900
     26 O23          0.7050    -2.3840    -0.9230 o          1 4RF      -0.526000
     27 C25         -0.2310     0.1790    -0.0880 c3         1 4RF      -0.067400
     28 C27         -1.3190     2.4680    -0.3040 c3         1 4RF      -0.073400
     29 C29         -2.4410     4.7520    -0.4750 c3         1 4RF      -0.073400
     30 C30         -2.7340     6.0720     0.2290 c3         1 4RF      -0.074400
     31 C31         -3.5790     7.0320    -0.5980 c3         1 4RF      -0.073400
     32 C32         -3.8750     8.3380     0.1290 c3         1 4RF      -0.074400
     33 C33         -4.7230     9.3100    -0.6820 c3         1 4RF      -0.074400
     34 C34         -5.0200    10.6060     0.0640 c3         1 4RF      -0.074400
     35 C35         -5.8690    11.5870    -0.7340 c3         1 4RF      -0.074400
     36 C36         -6.1650    12.8750     0.0240 c3         1 4RF      -0.075400
     37 C37         -7.0150    13.8630    -0.7640 c3         1 4RF      -0.074400
     38 C38         -7.3020    15.1420     0.0090 c3         1 4RF      -0.088100
     39 C39          2.7860    -4.7300     1.4910 c3         1 4RF       0.131400
     40 O40          3.8060    -3.9400     0.8920 os         1 4RF      -0.422900
     41 C41          5.0560    -4.1110     1.3210 c          1 4RF       0.644600
     42 O42          5.3550    -4.9160     2.1660 o          1 4RF      -0.532000
     43 C43          6.0070    -3.1810     0.6220 c3         1 4RF      -0.137400
     44 C44          7.4570    -3.3580     1.0420 c3         1 4RF      -0.068400
     45 C45          8.3800    -2.3810     0.3240 c3         1 4RF      -0.075900
     46 C46          9.8390    -2.5380     0.7310 c3         1 4RF      -0.074400
     47 C47         10.7680    -1.5610     0.0210 c3         1 4RF      -0.074400
     48 C48         12.2290    -1.7150     0.4260 c3         1 4RF      -0.074400
     49 C49         13.1560    -0.7390    -0.2860 c3         1 4RF      -0.074400
     50 C50         14.6180    -0.8920     0.1170 c3         1 4RF      -0.074400
     51 C51         15.5450     0.0810    -0.6020 c3         1 4RF      -0.074400
     52 C52         17.0080    -0.0720    -0.2040 c3         1 4RF      -0.074400
     53 C53         17.9330     0.8950    -0.9320 c3         1 4RF      -0.074400
     54 C54         19.3970     0.7410    -0.5400 c3         1 4RF      -0.074400
     55 C55         20.3220     1.7010    -1.2780 c3         1 4RF      -0.075400
     56 C56         21.7890     1.5410    -0.9000 c3         1 4RF      -0.074400
     57 C57         22.7020     2.5010    -1.6510 c3         1 4RF      -0.088100
     58 H1          -9.6610    -4.3610     1.4880 hc         1 4RF       0.037700
     59 H2          -9.6550    -5.6000     0.2520 hc         1 4RF       0.037700
     60 H3          -5.5610    -4.4740    -0.8480 hc         1 4RF       0.038200
     61 H4          -5.5760    -3.2320     0.3840 hc         1 4RF       0.038200
     62 H5          -3.0470    -4.6940    -0.5780 hc         1 4RF       0.073700
     63 H6          -3.0850    -3.4480     0.6370 hc         1 4RF       0.073700
     64 H7           1.5480    -4.4530    -0.2350 h1         1 4RF       0.094700
     65 H8           0.0330    -0.8710     1.7840 hc         1 4RF       0.071200
     66 H9           1.5210    -0.2960     1.0850 hc         1 4RF       0.071200
     67 H10         -1.0220     1.3690     1.5180 hc         1 4RF       0.037200
     68 H11          0.4530     2.0050     0.8260 hc         1 4RF       0.037200
     69 H12         -2.1170     3.6200     1.3230 hc         1 4RF       0.037200
     70 H13         -0.6560     4.2880     0.6320 hc         1 4RF       0.037200
     71 H14        -21.7300    -3.0590    -1.1020 hc         1 4RF       0.031367
     72 H15        -20.6920    -1.6470    -1.2670 hc         1 4RF       0.031367
     73 H16        -20.6880    -2.8920    -2.5110 hc         1 4RF       0.031367
     74 H17        -19.7310    -3.2940     0.3760 hc         1 4RF       0.036700
     75 H18        -19.7270    -4.5300    -0.8600 hc         1 4RF       0.036700
     76 H19        -18.1380    -3.1620    -2.2250 hc         1 4RF       0.036700
     77 H20        -18.1420    -1.9240    -0.9890 hc         1 4RF       0.036700
     78 H21        -17.2140    -3.5650     0.6600 hc         1 4RF       0.036700
     79 H22        -17.2100    -4.8040    -0.5760 hc         1 4RF       0.036700
     80 H23        -15.6250    -3.4330    -1.9450 hc         1 4RF       0.036700
     81 H24        -15.6290    -2.1950    -0.7100 hc         1 4RF       0.036700
     82 H25        -14.6970    -3.8350     0.9380 hc         1 4RF       0.037450
     83 H26        -14.6920    -5.0740    -0.2990 hc         1 4RF       0.037450
     84 H27        -13.1100    -3.6990    -1.6680 hc         1 4RF       0.036700
     85 H28        -13.1150    -2.4610    -0.4320 hc         1 4RF       0.036700
     86 H29        -12.1790    -4.1000     1.2140 hc         1 4RF       0.037700
     87 H30        -12.1740    -5.3380    -0.0220 hc         1 4RF       0.037700
     88 H31        -10.6000    -2.7240    -0.1580 hc         1 4RF       0.037200
     89 H32        -10.5940    -3.9620    -1.3940 hc         1 4RF       0.037200
     90 H33         -8.0780    -4.2220    -1.1210 hc         1 4RF       0.037200
     91 H34         -8.0860    -2.9820     0.1140 hc         1 4RF       0.037200
     92 H35         -7.1330    -5.8560     0.5250 hc         1 4RF       0.040450
     93 H36         -7.1430    -4.6160     1.7610 hc         1 4RF       0.040450
     94 H37         -4.6360    -4.8590     2.0380 hc         1 4RF       0.054450
     95 H38         -4.6130    -6.1000     0.8020 hc         1 4RF       0.054450
     96 H39          0.5100    -6.2160     1.1580 h1         1 4RF       0.060950
     97 H40          0.2800    -5.0650     2.4830 h1         1 4RF       0.060950
     98 H41          0.3130     0.3290    -1.0240 hc         1 4RF       0.053700
     99 H42         -1.1830    -0.2890    -0.3550 hc         1 4RF       0.053700
    100 H43         -0.7940     2.6420    -1.2500 hc         1 4RF       0.039700
    101 H44         -2.2660     1.9850    -0.5690 hc         1 4RF       0.039700
    102 H45         -1.9250     4.9510    -1.4210 hc         1 4RF       0.038200
    103 H46         -3.3850     4.2650    -0.7430 hc         1 4RF       0.038200
    104 H47         -3.2440     5.8670     1.1770 hc         1 4RF       0.037200
    105 H48         -1.7890     6.5580     0.4960 hc         1 4RF       0.037200
    106 H49         -3.0670     7.2490    -1.5420 hc         1 4RF       0.037700
    107 H50         -4.5220     6.5460    -0.8710 hc         1 4RF       0.037700
    108 H51         -4.3830     8.1170     1.0740 hc         1 4RF       0.036700
    109 H52         -2.9310     8.8230     0.4020 hc         1 4RF       0.036700
    110 H53         -4.2140     9.5410    -1.6240 hc         1 4RF       0.037700
    111 H54         -5.6660     8.8260    -0.9600 hc         1 4RF       0.037700
    112 H55         -5.5270    10.3710     1.0060 hc         1 4RF       0.036700
    113 H56         -4.0750    11.0870     0.3420 hc         1 4RF       0.036700
    114 H57         -5.3610    11.8270    -1.6750 hc         1 4RF       0.036700
    115 H58         -6.8130    11.1060    -1.0160 hc         1 4RF       0.036700
    116 H59         -6.6710    12.6330     0.9650 hc         1 4RF       0.036700
    117 H60         -5.2200    13.3540     0.3070 hc         1 4RF       0.036700
    118 H61         -6.5080    14.1070    -1.7030 hc         1 4RF       0.036700
    119 H62         -7.9580    13.3840    -1.0460 hc         1 4RF       0.036700
    120 H63         -7.9080    15.8380    -0.5720 hc         1 4RF       0.031367
    121 H64         -7.8390    14.9300     0.9360 hc         1 4RF       0.031367
    122 H65         -6.3760    15.6550     0.2790 hc         1 4RF       0.031367
    123 H66          2.7560    -4.5660     2.5710 h1         1 4RF       0.060950
    124 H67          2.9620    -5.7930     1.3130 h1         1 4RF       0.060950
    125 H68          5.8970    -3.3270    -0.4580 hc         1 4RF       0.073700
    126 H69          5.6760    -2.1540     0.8120 hc         1 4RF       0.073700
    127 H70          7.5510    -3.2170     2.1220 hc         1 4RF       0.054450
    128 H71          7.7800    -4.3820     0.8330 hc         1 4RF       0.054450
    129 H72          8.2870    -2.5190    -0.7590 hc         1 4RF       0.038200
    130 H73          8.0540    -1.3560     0.5290 hc         1 4RF       0.038200
    131 H74          9.9310    -2.4030     1.8140 hc         1 4RF       0.040450
    132 H75         10.1660    -3.5640     0.5240 hc         1 4RF       0.040450
    133 H76         10.6750    -1.6970    -1.0630 hc         1 4RF       0.037200
    134 H77         10.4410    -0.5360     0.2270 hc         1 4RF       0.037200
    135 H78         12.3210    -1.5780     1.5090 hc         1 4RF       0.037700
    136 H79         12.5560    -2.7410     0.2210 hc         1 4RF       0.037700
    137 H80         13.0620    -0.8760    -1.3690 hc         1 4RF       0.037200
    138 H81         12.8290     0.2870    -0.0810 hc         1 4RF       0.037200
    139 H82         14.7130    -0.7510     1.1990 hc         1 4RF       0.037700
    140 H83         14.9440    -1.9180    -0.0850 hc         1 4RF       0.037700
    141 H84         15.4470    -0.0600    -1.6840 hc         1 4RF       0.036700
    142 H85         15.2190     1.1080    -0.4000 hc         1 4RF       0.036700
    143 H86         17.1070     0.0750     0.8770 hc         1 4RF       0.037450
    144 H87         17.3310    -1.1000    -0.4020 hc         1 4RF       0.037450
    145 H88         17.8300     0.7490    -2.0130 hc         1 4RF       0.036700
    146 H89         17.6110     1.9240    -0.7330 hc         1 4RF       0.036700
    147 H90         19.5040     0.8930     0.5390 hc         1 4RF       0.036700
    148 H91         19.7170    -0.2890    -0.7350 hc         1 4RF       0.036700
    149 H92         20.2090     1.5540    -2.3580 hc         1 4RF       0.036700
    150 H93         20.0070     2.7320    -1.0800 hc         1 4RF       0.036700
    151 H94         21.9040     1.6940     0.1770 hc         1 4RF       0.036700
    152 H95         22.1020     0.5100    -1.0950 hc         1 4RF       0.036700
    153 H96         23.7480     2.3540    -1.3820 hc         1 4RF       0.031367
    154 H97         22.6160     2.3630    -2.7310 hc         1 4RF       0.031367
    155 H98         22.4480     3.5390    -1.4320 hc         1 4RF       0.031367
@<TRIPOS>BOND
     1     1    17 1   
     2     1    18 1   
     3     1    58 1   
     4     1    59 1   
     5     2    19 1   
     6     2    20 1   
     7     2    60 1   
     8     2    61 1   
     9     3    20 1   
    10     3    21 1   
    11     3    62 1   
    12     3    63 1   
    13     4    24 1   
    14     4    25 1   
    15     4    39 1   
    16     4    64 1   
    17     5     6 1   
    18     5    25 1   
    19     5    26 2   
    20     6    27 1   
    21     6    65 1   
    22     6    66 1   
    23     7    27 1   
    24     7    28 1   
    25     7    67 1   
    26     7    68 1   
    27     8    28 1   
    28     8    29 1   
    29     8    69 1   
    30     8    70 1   
    31     9    10 1   
    32     9    71 1   
    33     9    72 1   
    34     9    73 1   
    35    10    11 1   
    36    10    74 1   
    37    10    75 1   
    38    11    12 1   
    39    11    76 1   
    40    11    77 1   
    41    12    13 1   
    42    12    78 1   
    43    12    79 1   
    44    13    14 1   
    45    13    80 1   
    46    13    81 1   
    47    14    15 1   
    48    14    82 1   
    49    14    83 1   
    50    15    16 1   
    51    15    84 1   
    52    15    85 1   
    53    16    17 1   
    54    16    86 1   
    55    16    87 1   
    56    17    88 1   
    57    17    89 1   
    58    18    19 1   
    59    18    90 1   
    60    18    91 1   
    61    19    92 1   
    62    19    93 1   
    63    20    94 1   
    64    20    95 1   
    65    21    22 2   
    66    21    23 1   
    67    23    24 1   
    68    24    96 1   
    69    24    97 1   
    70    27    98 1   
    71    27    99 1   
    72    28   100 1   
    73    28   101 1   
    74    29    30 1   
    75    29   102 1   
    76    29   103 1   
    77    30    31 1   
    78    30   104 1   
    79    30   105 1   
    80    31    32 1   
    81    31   106 1   
    82    31   107 1   
    83    32    33 1   
    84    32   108 1   
    85    32   109 1   
    86    33    34 1   
    87    33   110 1   
    88    33   111 1   
    89    34    35 1   
    90    34   112 1   
    91    34   113 1   
    92    35    36 1   
    93    35   114 1   
    94    35   115 1   
    95    36    37 1   
    96    36   116 1   
    97    36   117 1   
    98    37    38 1   
    99    37   118 1   
   100    37   119 1   
   101    38   120 1   
   102    38   121 1   
   103    38   122 1   
   104    39    40 1   
   105    39   123 1   
   106    39   124 1   
   107    40    41 1   
   108    41    42 2   
   109    41    43 1   
   110    43    44 1   
   111    43   125 1   
   112    43   126 1   
   113    44    45 1   
   114    44   127 1   
   115    44   128 1   
   116    45    46 1   
   117    45   129 1   
   118    45   130 1   
   119    46    47 1   
   120    46   131 1   
   121    46   132 1   
   122    47    48 1   
   123    47   133 1   
   124    47   134 1   
   125    48    49 1   
   126    48   135 1   
   127    48   136 1   
   128    49    50 1   
   129    49   137 1   
   130    49   138 1   
   131    50    51 1   
   132    50   139 1   
   133    50   140 1   
   134    51    52 1   
   135    51   141 1   
   136    51   142 1   
   137    52    53 1   
   138    52   143 1   
   139    52   144 1   
   140    53    54 1   
   141    53   145 1   
   142    53   146 1   
   143    54    55 1   
   144    54   147 1   
   145    54   148 1   
   146    55    56 1   
   147    55   149 1   
   148    55   150 1   
   149    56    57 1   
   150    56   151 1   
   151    56   152 1   
   152    57   153 1   
   153    57   154 1   
   154    57   155 1   
@<TRIPOS>SUBSTRUCTURE
     1 4RF         1 TEMP              0 ****  ****    0 ROOT
