@<TRIPOS>MOLECULE
4RF
  155   154     1     0     0
SMALL
No Charge or Current Charge


@<TRIPOS>ATOM
      1 C10         -8.1720    -4.3580    -0.0230 c3         1 4RF      -0.074400
      2 C13         -4.7250    -6.2250    -0.5640 c3         1 4RF      -0.075900
      3 C15         -2.3670    -7.2670    -0.3210 c3         1 4RF      -0.137400
      4 C20          1.4730    -4.8950     1.3110 c3         1 4RF       0.166300
      5 C22         -0.1950    -3.3830     0.3830 c          1 4RF       0.607100
      6 C24         -1.3150    -2.4190     0.7780 c3         1 4RF      -0.137400
      7 C26         -2.0970     0.0320     0.7900 c3         1 4RF      -0.076400
      8 C28         -2.9430     2.4620     0.6940 c3         1 4RF      -0.075400
      9 C01        -18.7690     0.2320    -1.2950 c3         1 4RF      -0.088100
     10 C02        -17.5130    -0.0510    -0.4470 c3         1 4RF      -0.074400
     11 C03        -16.4280    -0.8380    -1.2150 c3         1 4RF      -0.075400
     12 C04        -15.1720    -1.1210    -0.3620 c3         1 4RF      -0.074400
     13 C05        -14.0900    -1.9170    -1.1240 c3         1 4RF      -0.074400
     14 C06        -12.8370    -2.2010    -0.2660 c3         1 4RF      -0.074400
     15 C07        -11.7540    -3.0040    -1.0200 c3         1 4RF      -0.074400
     16 C08        -10.5050    -3.2840    -0.1550 c3         1 4RF      -0.074400
     17 C09         -9.4130    -4.0820    -0.9000 c3         1 4RF      -0.074400
     18 C11         -7.0690    -5.1530    -0.7540 c3         1 4RF      -0.074400
     19 C12         -5.8430    -5.4280     0.1440 c3         1 4RF      -0.074400
     20 C14         -3.5170    -6.4860     0.3600 c3         1 4RF      -0.068400
     21 C16         -1.1910    -7.4170     0.6440 c          1 4RF       0.595600
     22 O17         -1.0620    -8.3470     1.4280 o          1 4RF      -0.483000
     23 O18         -0.3350    -6.3540     0.5520 os         1 4RF      -0.446100
     24 C19          0.7360    -6.2500     1.5090 c3         1 4RF       0.154600
     25 O21          0.5150    -3.8170     1.4770 os         1 4RF      -0.450100
     26 O23          0.0280    -3.7160    -0.7730 o          1 4RF      -0.477000
     27 C25         -0.9400    -0.9470     0.4880 c3         1 4RF      -0.067400
     28 C27         -1.7630     1.4980     0.4360 c3         1 4RF      -0.073400
     29 C29         -2.6320     3.9210     0.2930 c3         1 4RF      -0.073400
     30 C30         -3.8260     4.8750     0.5160 c3         1 4RF      -0.074400
     31 C31         -3.5330     6.3270     0.0770 c3         1 4RF      -0.073400
     32 C32         -4.7360     7.2730     0.2810 c3         1 4RF      -0.074400
     33 C33         -4.4520     8.7220    -0.1730 c3         1 4RF      -0.074400
     34 C34         -5.6610     9.6630     0.0250 c3         1 4RF      -0.074400
     35 C35         -5.3810    11.1130    -0.4310 c3         1 4RF      -0.074400
     36 C36         -6.5910    12.0530    -0.2250 c3         1 4RF      -0.075400
     37 C37         -6.3130    13.5030    -0.6810 c3         1 4RF      -0.074400
     38 C38         -7.5150    14.4440    -0.4660 c3         1 4RF      -0.088100
     39 C39          2.5740    -4.7030     2.3800 c3         1 4RF       0.154600
     40 O40          3.3910    -3.5710     2.0170 os         1 4RF      -0.446100
     41 C41          4.3500    -3.1690     2.9090 c          1 4RF       0.595600
     42 O42          4.5340    -3.6830     4.0040 o          1 4RF      -0.483000
     43 C43          5.1720    -1.9900     2.3820 c3         1 4RF      -0.137400
     44 C44          6.5420    -2.4620     1.8380 c3         1 4RF      -0.068400
     45 C45          7.4660    -1.2950     1.4230 c3         1 4RF      -0.075900
     46 C46          8.8570    -1.7690     0.9480 c3         1 4RF      -0.074400
     47 C47          9.8130    -0.6040     0.6110 c3         1 4RF      -0.074400
     48 C48         11.2200    -1.0810     0.1900 c3         1 4RF      -0.074400
     49 C49         12.1970     0.0830    -0.0830 c3         1 4RF      -0.074400
     50 C50         13.6160    -0.3950    -0.4620 c3         1 4RF      -0.074400
     51 C51         14.6060     0.7690    -0.6920 c3         1 4RF      -0.074400
     52 C52         16.0320     0.2880    -1.0430 c3         1 4RF      -0.074400
     53 C53         17.0280     1.4490    -1.2550 c3         1 4RF      -0.074400
     54 C54         18.4570     0.9670    -1.5910 c3         1 4RF      -0.074400
     55 C55         19.4540     2.1290    -1.7990 c3         1 4RF      -0.075400
     56 C56         20.8830     1.6480    -2.1330 c3         1 4RF      -0.074400
     57 C57         21.8760     2.8070    -2.3430 c3         1 4RF      -0.088100
     58 H1          -7.7570    -3.4020     0.3230 hc         1 4RF       0.037700
     59 H2          -8.4820    -4.9130     0.8720 hc         1 4RF       0.037700
     60 H3          -5.1280    -7.1830    -0.9150 hc         1 4RF       0.038200
     61 H4          -4.3910    -5.6700    -1.4500 hc         1 4RF       0.038200
     62 H5          -2.7250    -8.2570    -0.6260 hc         1 4RF       0.073700
     63 H6          -2.0450    -6.6790    -1.1890 hc         1 4RF       0.073700
     64 H7           1.9500    -4.8780     0.3220 h1         1 4RF       0.094700
     65 H8          -2.2110    -2.6760     0.2010 hc         1 4RF       0.071200
     66 H9          -1.5170    -2.5160     1.8510 hc         1 4RF       0.071200
     67 H10         -2.9830    -0.2770     0.2230 hc         1 4RF       0.037200
     68 H11         -2.3580    -0.0340     1.8530 hc         1 4RF       0.037200
     69 H12         -3.8190     2.1150     0.1310 hc         1 4RF       0.037200
     70 H13         -3.2120     2.4280     1.7570 hc         1 4RF       0.037200
     71 H14        -19.5090     0.7870    -0.7070 hc         1 4RF       0.031367
     72 H15        -18.5140     0.8300    -2.1790 hc         1 4RF       0.031367
     73 H16        -19.2300    -0.7050    -1.6300 hc         1 4RF       0.031367
     74 H17        -17.0940     0.9030    -0.1010 hc         1 4RF       0.036700
     75 H18        -17.8070    -0.6150     0.4470 hc         1 4RF       0.036700
     76 H19        -16.8520    -1.7900    -1.5600 hc         1 4RF       0.036700
     77 H20        -16.1380    -0.2730    -2.1090 hc         1 4RF       0.036700
     78 H21        -14.7460    -0.1690    -0.0220 hc         1 4RF       0.036700
     79 H22        -15.4650    -1.6800     0.5360 hc         1 4RF       0.036700
     80 H23        -14.5160    -2.8690    -1.4650 hc         1 4RF       0.036700
     81 H24        -13.7940    -1.3580    -2.0200 hc         1 4RF       0.036700
     82 H25        -12.4100    -1.2480     0.0720 hc         1 4RF       0.037450
     83 H26        -13.1350    -2.7550     0.6340 hc         1 4RF       0.037450
     84 H27        -12.1790    -3.9580    -1.3570 hc         1 4RF       0.036700
     85 H28        -11.4540    -2.4500    -1.9180 hc         1 4RF       0.036700
     86 H29        -10.0840    -2.3290     0.1860 hc         1 4RF       0.037700
     87 H30        -10.8070    -3.8390     0.7430 hc         1 4RF       0.037700
     88 H31         -9.1070    -3.5270    -1.7950 hc         1 4RF       0.037200
     89 H32         -9.8330    -5.0370    -1.2410 hc         1 4RF       0.037200
     90 H33         -7.4820    -6.1080    -1.1030 hc         1 4RF       0.037200
     91 H34         -6.7480    -4.5950    -1.6430 hc         1 4RF       0.037200
     92 H35         -6.1680    -5.9800     1.0350 hc         1 4RF       0.040450
     93 H36         -5.4340    -4.4710     0.4940 hc         1 4RF       0.040450
     94 H37         -3.1300    -5.5240     0.7210 hc         1 4RF       0.054450
     95 H38         -3.8530    -7.0430     1.2440 hc         1 4RF       0.054450
     96 H39          1.4480    -7.0760     1.3850 h1         1 4RF       0.060950
     97 H40          0.3410    -6.2920     2.5330 h1         1 4RF       0.060950
     98 H41         -0.0600    -0.6700     1.0840 hc         1 4RF       0.053700
     99 H42         -0.6550    -0.8500    -0.5680 hc         1 4RF       0.053700
    100 H43         -0.8940     1.8240     1.0210 hc         1 4RF       0.039700
    101 H44         -1.4790     1.5560    -0.6220 hc         1 4RF       0.039700
    102 H45         -1.7700     4.2790     0.8690 hc         1 4RF       0.038200
    103 H46         -2.3450     3.9490    -0.7660 hc         1 4RF       0.038200
    104 H47         -4.6940     4.5010    -0.0410 hc         1 4RF       0.037200
    105 H48         -4.0990     4.8680     1.5790 hc         1 4RF       0.037200
    106 H49         -2.6730     6.7080     0.6410 hc         1 4RF       0.037700
    107 H50         -3.2480     6.3310    -0.9830 hc         1 4RF       0.037700
    108 H51         -5.5980     6.8850    -0.2760 hc         1 4RF       0.036700
    109 H52         -5.0150     7.2760     1.3420 hc         1 4RF       0.036700
    110 H53         -3.5930     9.1130     0.3870 hc         1 4RF       0.037700
    111 H54         -4.1680     8.7190    -1.2340 hc         1 4RF       0.037700
    112 H55         -6.5190     9.2700    -0.5350 hc         1 4RF       0.036700
    113 H56         -5.9440     9.6660     1.0860 hc         1 4RF       0.036700
    114 H57         -4.5190    11.5070     0.1260 hc         1 4RF       0.036700
    115 H58         -5.1030    11.1110    -1.4940 hc         1 4RF       0.036700
    116 H59         -7.4540    11.6590    -0.7810 hc         1 4RF       0.036700
    117 H60         -6.8680    12.0550     0.8380 hc         1 4RF       0.036700
    118 H61         -5.4480    13.8980    -0.1300 hc         1 4RF       0.036700
    119 H62         -6.0430    13.5060    -1.7460 hc         1 4RF       0.036700
    120 H63         -7.2680    15.4590    -0.8040 hc         1 4RF       0.031367
    121 H64         -8.3880    14.0960    -1.0340 hc         1 4RF       0.031367
    122 H65         -7.7860    14.4910     0.5970 hc         1 4RF       0.031367
    123 H66          2.0990    -4.5500     3.3590 h1         1 4RF       0.060950
    124 H67          3.1890    -5.6110     2.4380 h1         1 4RF       0.060950
    125 H68          4.6290    -1.5020     1.5640 hc         1 4RF       0.073700
    126 H69          5.3380    -1.2850     3.2040 hc         1 4RF       0.073700
    127 H70          7.0470    -3.0550     2.6120 hc         1 4RF       0.054450
    128 H71          6.3840    -3.1270     0.9800 hc         1 4RF       0.054450
    129 H72          6.9860    -0.7180     0.6230 hc         1 4RF       0.038200
    130 H73          7.5920    -0.6170     2.2770 hc         1 4RF       0.038200
    131 H74          9.3120    -2.3860     1.7340 hc         1 4RF       0.040450
    132 H75          8.7400    -2.4110     0.0650 hc         1 4RF       0.040450
    133 H76          9.3780     0.0000    -0.1960 hc         1 4RF       0.037200
    134 H77          9.9040     0.0490     1.4870 hc         1 4RF       0.037200
    135 H78         11.6350    -1.7180     0.9820 hc         1 4RF       0.037700
    136 H79         11.1370    -1.7040    -0.7100 hc         1 4RF       0.037700
    137 H80         11.7970     0.7090    -0.8910 hc         1 4RF       0.037200
    138 H81         12.2590     0.7160     0.8120 hc         1 4RF       0.037200
    139 H82         14.0020    -1.0410     0.3360 hc         1 4RF       0.037700
    140 H83         13.5600    -1.0070    -1.3710 hc         1 4RF       0.037700
    141 H84         14.2300     1.4080    -1.5010 hc         1 4RF       0.036700
    142 H85         14.6490     1.3880     0.2120 hc         1 4RF       0.036700
    143 H86         16.4010    -0.3600    -0.2370 hc         1 4RF       0.037450
    144 H87         15.9910    -0.3240    -1.9530 hc         1 4RF       0.037450
    145 H88         16.6640     2.0930    -2.0660 hc         1 4RF       0.036700
    146 H89         17.0610     2.0650    -0.3470 hc         1 4RF       0.036700
    147 H90         18.8190     0.3230    -0.7800 hc         1 4RF       0.036700
    148 H91         18.4250     0.3520    -2.4990 hc         1 4RF       0.036700
    149 H92         19.0920     2.7730    -2.6110 hc         1 4RF       0.036700
    150 H93         19.4840     2.7440    -0.8910 hc         1 4RF       0.036700
    151 H94         21.2500     1.0060    -1.3220 hc         1 4RF       0.036700
    152 H95         20.8570     1.0320    -3.0410 hc         1 4RF       0.036700
    153 H96         22.8740     2.4170    -2.5770 hc         1 4RF       0.031367
    154 H97         21.5550     3.4470    -3.1730 hc         1 4RF       0.031367
    155 H98         21.9520     3.4230    -1.4380 hc         1 4RF       0.031367
@<TRIPOS>BOND
     1     1    17 1   
     2     1    18 1   
     3     1    58 1   
     4     1    59 1   
     5     2    19 1   
     6     2    20 1   
     7     2    60 1   
     8     2    61 1   
     9     3    20 1   
    10     3    21 1   
    11     3    62 1   
    12     3    63 1   
    13     4    24 1   
    14     4    25 1   
    15     4    39 1   
    16     4    64 1   
    17     5     6 1   
    18     5    25 1   
    19     5    26 2   
    20     6    27 1   
    21     6    65 1   
    22     6    66 1   
    23     7    27 1   
    24     7    28 1   
    25     7    67 1   
    26     7    68 1   
    27     8    28 1   
    28     8    29 1   
    29     8    69 1   
    30     8    70 1   
    31     9    10 1   
    32     9    71 1   
    33     9    72 1   
    34     9    73 1   
    35    10    11 1   
    36    10    74 1   
    37    10    75 1   
    38    11    12 1   
    39    11    76 1   
    40    11    77 1   
    41    12    13 1   
    42    12    78 1   
    43    12    79 1   
    44    13    14 1   
    45    13    80 1   
    46    13    81 1   
    47    14    15 1   
    48    14    82 1   
    49    14    83 1   
    50    15    16 1   
    51    15    84 1   
    52    15    85 1   
    53    16    17 1   
    54    16    86 1   
    55    16    87 1   
    56    17    88 1   
    57    17    89 1   
    58    18    19 1   
    59    18    90 1   
    60    18    91 1   
    61    19    92 1   
    62    19    93 1   
    63    20    94 1   
    64    20    95 1   
    65    21    22 2   
    66    21    23 1   
    67    23    24 1   
    68    24    96 1   
    69    24    97 1   
    70    27    98 1   
    71    27    99 1   
    72    28   100 1   
    73    28   101 1   
    74    29    30 1   
    75    29   102 1   
    76    29   103 1   
    77    30    31 1   
    78    30   104 1   
    79    30   105 1   
    80    31    32 1   
    81    31   106 1   
    82    31   107 1   
    83    32    33 1   
    84    32   108 1   
    85    32   109 1   
    86    33    34 1   
    87    33   110 1   
    88    33   111 1   
    89    34    35 1   
    90    34   112 1   
    91    34   113 1   
    92    35    36 1   
    93    35   114 1   
    94    35   115 1   
    95    36    37 1   
    96    36   116 1   
    97    36   117 1   
    98    37    38 1   
    99    37   118 1   
   100    37   119 1   
   101    38   120 1   
   102    38   121 1   
   103    38   122 1   
   104    39    40 1   
   105    39   123 1   
   106    39   124 1   
   107    40    41 1   
   108    41    42 2   
   109    41    43 1   
   110    43    44 1   
   111    43   125 1   
   112    43   126 1   
   113    44    45 1   
   114    44   127 1   
   115    44   128 1   
   116    45    46 1   
   117    45   129 1   
   118    45   130 1   
   119    46    47 1   
   120    46   131 1   
   121    46   132 1   
   122    47    48 1   
   123    47   133 1   
   124    47   134 1   
   125    48    49 1   
   126    48   135 1   
   127    48   136 1   
   128    49    50 1   
   129    49   137 1   
   130    49   138 1   
   131    50    51 1   
   132    50   139 1   
   133    50   140 1   
   134    51    52 1   
   135    51   141 1   
   136    51   142 1   
   137    52    53 1   
   138    52   143 1   
   139    52   144 1   
   140    53    54 1   
   141    53   145 1   
   142    53   146 1   
   143    54    55 1   
   144    54   147 1   
   145    54   148 1   
   146    55    56 1   
   147    55   149 1   
   148    55   150 1   
   149    56    57 1   
   150    56   151 1   
   151    56   152 1   
   152    57   153 1   
   153    57   154 1   
   154    57   155 1   
@<TRIPOS>SUBSTRUCTURE
     1 4RF         1 TEMP              0 ****  ****    0 ROOT
