@<TRIPOS>MOLECULE
4RG
   28    29     1     0     0
SMALL
bcc


@<TRIPOS>ATOM
      1 CAA         -3.9630    -1.1980    -0.0790 c          1 4RG       0.925200
      2 CAB         -2.9790    -0.0330    -0.0460 ca         1 4RG      -0.141600
      3 CAC         -1.6740    -0.2200     0.4000 ca         1 4RG      -0.075000
      4 CAD         -0.7650     0.8310     0.4460 ca         1 4RG      -0.142300
      5 CAE         -1.1690     2.0970     0.0310 ca         1 4RG      -0.129000
      6 CAF         -2.4660     2.2990    -0.4190 ca         1 4RG      -0.172000
      7 CAG         -3.3640     1.2410    -0.4560 ca         1 4RG      -0.089000
      8 OAH         -5.1170    -0.9400    -0.4700 o          1 4RG      -0.824800
      9 OAI         -3.5280    -2.3060     0.2870 o          1 4RG      -0.824800
     10 CAJ          0.6430     0.5970     0.9020 c3         1 4RG       0.195700
     11 OAK          1.4180     0.2920    -0.2520 os         1 4RG      -0.308900
     12 CAL          2.7260     0.0050    -0.0920 ca         1 4RG       0.161100
     13 CAM          3.4310    -0.3170    -1.2550 ca         1 4RG      -0.196500
     14 CAN          4.7780    -0.6280    -1.1890 ca         1 4RG      -0.097000
     15 CAO          5.4470    -0.6250     0.0310 ca         1 4RG      -0.185000
     16 CAP          4.7450    -0.3050     1.1820 ca         1 4RG      -0.097000
     17 CAQ          3.3900     0.0110     1.1330 ca         1 4RG      -0.196500
     18 HAC         -1.3650    -1.2070     0.7230 ha         1 4RG       0.147000
     19 HAE         -0.4710     2.9250     0.0650 ha         1 4RG       0.103000
     20 HAF         -2.7780     3.2860    -0.7390 ha         1 4RG       0.105000
     21 HAG         -4.3750     1.4070    -0.8030 ha         1 4RG       0.145000
     22 HAJ          1.0390     1.4890     1.4000 h1         1 4RG       0.029700
     23 HAJA         0.6840    -0.2310     1.6170 h1         1 4RG       0.029700
     24 HAM          2.9130    -0.3190    -2.2070 ha         1 4RG       0.140500
     25 HAN          5.3080    -0.8750    -2.0990 ha         1 4RG       0.119000
     26 HAO          6.5000    -0.8670     0.0800 ha         1 4RG       0.120000
     27 HAP          5.2480    -0.2990     2.1400 ha         1 4RG       0.119000
     28 HAQ          2.8780     0.2530     2.0530 ha         1 4RG       0.140500
@<TRIPOS>BOND
     1     1     2 1   
     2     1     8 1   
     3     1     9 1   
     4     2     3 ar  
     5     2     7 ar  
     6     3     4 ar  
     7     3    18 1   
     8     4     5 ar  
     9     4    10 1   
    10     5     6 ar  
    11     5    19 1   
    12     6     7 ar  
    13     6    20 1   
    14     7    21 1   
    15    10    11 1   
    16    10    22 1   
    17    10    23 1   
    18    11    12 1   
    19    12    13 ar  
    20    12    17 ar  
    21    13    14 ar  
    22    13    24 1   
    23    14    15 ar  
    24    14    25 1   
    25    15    16 ar  
    26    15    26 1   
    27    16    17 ar  
    28    16    27 1   
    29    17    28 1   
@<TRIPOS>SUBSTRUCTURE
     1 4RG         1 TEMP              0 ****  ****    0 ROOT
