@<TRIPOS>MOLECULE
4RG
   28    29     1     0     0
SMALL
No Charge or Current Charge


@<TRIPOS>ATOM
      1 CAA         -3.9630    -1.2240    -0.2030 c          1 4RG       0.714600
      2 CAB         -3.0170    -0.0410    -0.0900 ca         1 4RG      -0.141600
      3 CAC         -1.6810    -0.2220     0.3430 ca         1 4RG      -0.057000
      4 CAD         -0.7990     0.8720     0.4500 ca         1 4RG      -0.142300
      5 CAE         -1.2500     2.1630     0.1210 ca         1 4RG      -0.111000
      6 CAF         -2.5710     2.3580    -0.3100 ca         1 4RG      -0.154000
      7 CAG         -3.4500     1.2660    -0.4150 ca         1 4RG      -0.071000
      8 OAH         -5.1050    -1.0260    -0.5960 o          1 4RG      -0.719500
      9 OAI         -3.5530    -2.3340     0.1040 o          1 4RG      -0.719500
     10 CAJ          0.6340     0.6540     0.9200 c3         1 4RG       0.218900
     11 OAK          1.4220     0.2280    -0.2030 os         1 4RG      -0.332100
     12 CAL          2.7680    -0.0530    -0.0900 ca         1 4RG       0.161100
     13 CAM          3.4510    -0.4630    -1.2480 ca         1 4RG      -0.178500
     14 CAN          4.8230    -0.7630    -1.1970 ca         1 4RG      -0.079000
     15 CAO          5.5190    -0.6520     0.0190 ca         1 4RG      -0.167000
     16 CAP          4.8440    -0.2420     1.1810 ca         1 4RG      -0.079000
     17 CAQ          3.4710     0.0580     1.1300 ca         1 4RG      -0.178500
     18 HAC         -1.3220    -1.2170     0.5960 ha         1 4RG       0.129000
     19 HAE         -0.5770     3.0140     0.1970 ha         1 4RG       0.085000
     20 HAF         -2.9160     3.3570    -0.5630 ha         1 4RG       0.087000
     21 HAG         -4.4700     1.4410    -0.7510 ha         1 4RG       0.127000
     22 HAJ          1.0310     1.5890     1.3370 h1         1 4RG       0.029700
     23 HAJA         0.6460    -0.1060     1.7120 h1         1 4RG       0.029700
     24 HAM          2.9130    -0.5490    -2.1880 ha         1 4RG       0.122500
     25 HAN          5.3460    -1.0800    -2.0970 ha         1 4RG       0.101000
     26 HAO          6.5810    -0.8830     0.0600 ha         1 4RG       0.102000
     27 HAP          5.3850    -0.1560     2.1210 ha         1 4RG       0.101000
     28 HAQ          2.9740     0.3730     2.0430 ha         1 4RG       0.122500
@<TRIPOS>BOND
     1     1     2 1   
     2     1     8 1   
     3     1     9 1   
     4     2     3 ar  
     5     2     7 ar  
     6     3     4 ar  
     7     3    18 1   
     8     4     5 ar  
     9     4    10 1   
    10     5     6 ar  
    11     5    19 1   
    12     6     7 ar  
    13     6    20 1   
    14     7    21 1   
    15    10    11 1   
    16    10    22 1   
    17    10    23 1   
    18    11    12 1   
    19    12    13 ar  
    20    12    17 ar  
    21    13    14 ar  
    22    13    24 1   
    23    14    15 ar  
    24    14    25 1   
    25    15    16 ar  
    26    15    26 1   
    27    16    17 ar  
    28    16    27 1   
    29    17    28 1   
@<TRIPOS>SUBSTRUCTURE
     1 4RG         1 TEMP              0 ****  ****    0 ROOT
