@<TRIPOS>MOLECULE
4RH
   24    23     1     0     0
SMALL
No Charge or Current Charge


@<TRIPOS>ATOM
      1 C01        -34.3540    41.3030   -71.7980 c3         1 4RH      -0.087100
      2 C02        -34.7020    42.8060   -71.7390 c3         1 4RH       0.163500
      3 C03        -33.4470    43.7100   -71.5380 c3         1 4RH       0.164600
      4 C05        -31.3640    44.3370   -72.6040 c3         1 4RH       0.159600
      5 C06        -30.5360    44.0650   -73.8790 c3         1 4RH       0.153600
      6 C08        -28.4530    44.6880   -74.9430 c3         1 4RH       0.148900
      7 N09        -35.7230    43.0350   -70.6890 n8         1 4RH      -1.003200
      8 O04        -32.5720    43.5570   -72.6730 os         1 4RH      -0.467000
      9 O07        -29.3270    44.8450   -73.8120 os         1 4RH      -0.456000
     10 H011       -35.2560    40.6980   -71.9500 hc         1 4RH       0.041033
     11 H012       -33.6700    41.0950   -72.6290 hc         1 4RH       0.041033
     12 H013       -33.8710    40.9760   -70.8690 hc         1 4RH       0.041033
     13 H021       -35.1630    43.0810   -72.6980 h1         1 4RH       0.027700
     14 H031       -32.9330    43.4230   -70.6110 h1         1 4RH       0.030200
     15 H032       -33.7640    44.7570   -71.4440 h1         1 4RH       0.030200
     16 H052       -30.7730    44.0590   -71.7210 h1         1 4RH       0.034200
     17 H051       -31.5980    45.4090   -72.5450 h1         1 4RH       0.034200
     18 H061       -31.1270    44.3430   -74.7620 h1         1 4RH       0.033200
     19 H062       -30.3030    42.9930   -73.9390 h1         1 4RH       0.033200
     20 H082       -27.5570    45.3090   -74.8220 h1         1 4RH       0.029033
     21 H083       -28.1330    43.6420   -75.0460 h1         1 4RH       0.029033
     22 H081       -28.9570    44.9910   -75.8700 h1         1 4RH       0.029033
     23 H1         -36.0760    43.9960   -70.7700 hn         1 4RH       0.395500
     24 H092       -36.5480    42.4610   -70.8990 hn         1 4RH       0.395500
@<TRIPOS>BOND
     1     1     2 1   
     2     1    10 1   
     3     1    11 1   
     4     1    12 1   
     5     2     3 1   
     6     2     7 1   
     7     2    13 1   
     8     3     8 1   
     9     3    14 1   
    10     3    15 1   
    11     4     5 1   
    12     4     8 1   
    13     4    16 1   
    14     4    17 1   
    15     5     9 1   
    16     5    18 1   
    17     5    19 1   
    18     6     9 1   
    19     6    20 1   
    20     6    21 1   
    21     6    22 1   
    22     7    23 1   
    23     7    24 1   
@<TRIPOS>SUBSTRUCTURE
     1 4RH         1 TEMP              0 ****  ****    0 ROOT
