@<TRIPOS>MOLECULE
4RH
   24    23     1     0     0
SMALL
bcc


@<TRIPOS>ATOM
      1 C01        -34.3060    41.3400   -71.8050 c3         1 4RH      -0.087100
      2 C02        -34.6710    42.8160   -71.8230 c3         1 4RH       0.163500
      3 C03        -33.4460    43.6990   -71.6330 c3         1 4RH       0.141400
      4 C05        -31.3960    44.2840   -72.6060 c3         1 4RH       0.136400
      5 C06        -30.5770    44.0650   -73.8630 c3         1 4RH       0.130400
      6 C08        -28.5550    44.6660   -74.8610 c3         1 4RH       0.125700
      7 N09        -35.5860    43.1030   -70.7240 n8         1 4RH      -0.892800
      8 O04        -32.5820    43.5440   -72.7290 os         1 4RH      -0.420600
      9 O07        -29.3880    44.8010   -73.7400 os         1 4RH      -0.409600
     10 H011       -35.1930    40.7190   -71.9350 hc         1 4RH       0.041033
     11 H012       -33.6090    41.0930   -72.6040 hc         1 4RH       0.041033
     12 H013       -33.8440    41.0710   -70.8520 hc         1 4RH       0.041033
     13 H021       -35.1060    43.0520   -72.8060 h1         1 4RH       0.027700
     14 H031       -32.9480    43.4250   -70.6910 h1         1 4RH       0.030200
     15 H032       -33.7570    44.7510   -71.5370 h1         1 4RH       0.030200
     16 H052       -30.8220    43.9660   -71.7240 h1         1 4RH       0.034200
     17 H051       -31.6100    45.3560   -72.4830 h1         1 4RH       0.034200
     18 H061       -31.1530    44.3880   -74.7430 h1         1 4RH       0.033200
     19 H062       -30.3690    42.9930   -73.9890 h1         1 4RH       0.033200
     20 H082       -27.6650    45.2720   -74.6950 h1         1 4RH       0.029033
     21 H083       -28.2410    43.6270   -75.0190 h1         1 4RH       0.029033
     22 H081       -29.0420    45.0120   -75.7810 h1         1 4RH       0.029033
     23 H1         -35.9500    44.0440   -70.8190 hn         1 4RH       0.340300
     24 H092       -36.3920    42.4930   -70.7890 hn         1 4RH       0.340300
@<TRIPOS>BOND
     1     1     2 1   
     2     1    10 1   
     3     1    11 1   
     4     1    12 1   
     5     2     3 1   
     6     2     7 1   
     7     2    13 1   
     8     3     8 1   
     9     3    14 1   
    10     3    15 1   
    11     4     5 1   
    12     4     8 1   
    13     4    16 1   
    14     4    17 1   
    15     5     9 1   
    16     5    18 1   
    17     5    19 1   
    18     6     9 1   
    19     6    20 1   
    20     6    21 1   
    21     6    22 1   
    22     7    23 1   
    23     7    24 1   
@<TRIPOS>SUBSTRUCTURE
     1 4RH         1 TEMP              0 ****  ****    0 ROOT
