@<TRIPOS>MOLECULE
4RI
   42    43     1     0     0
SMALL
bcc


@<TRIPOS>ATOM
      1 C4          -7.5830   -12.4770    16.1080 ca         1 4RI       0.537600
      2 C5          -7.1260   -12.7150    17.3950 cp         1 4RI      -0.401600
      3 C6          -5.7170   -12.7260    17.5520 ca         1 4RI       0.751200
      4 N1          -4.8930   -12.5420    16.5280 nb         1 4RI      -0.857000
      5 N3          -6.7530   -12.2900    15.0770 nb         1 4RI      -0.818000
      6 CAO        -11.6030   -16.5730    18.4260 c3         1 4RI      -0.089100
      7 CAN        -10.5340   -16.4560    17.3480 c3         1 4RI      -0.073400
      8 CAM        -10.5200   -15.0890    16.6770 c3         1 4RI      -0.079400
      9 CAL         -9.4570   -14.9660    15.5910 c3         1 4RI      -0.075400
     10 CAK         -9.4610   -13.6190    14.8730 c3         1 4RI      -0.064400
     11 CAJ         -9.0420   -12.4340    15.7510 c3         1 4RI      -0.133700
     12 C2          -5.4500   -12.3410    15.3350 ca         1 4RI       0.936900
     13 NAI         -4.6050   -12.2050    14.2840 nv         1 4RI      -0.942500
     14 NAH         -5.1500   -12.9450    18.7560 nv         1 4RI      -0.959500
     15 CAG         -8.0080   -12.9550    18.5590 cp         1 4RI      -0.013000
     16 CAP         -8.7780   -11.9300    19.1100 ca         1 4RI      -0.123000
     17 CAQ         -9.6060   -12.1700    20.1980 ca         1 4RI      -0.131500
     18 CAR         -9.6670   -13.4380    20.7630 ca         1 4RI      -0.130000
     19 CAS         -8.8950   -14.4630    20.2320 ca         1 4RI      -0.131500
     20 CAT         -8.0750   -14.2220    19.1390 ca         1 4RI      -0.123000
     21 H1         -11.5980   -17.5580    18.8940 hc         1 4RI       0.030367
     22 H2         -11.4470   -15.8320    19.2120 hc         1 4RI       0.030367
     23 H3         -12.6000   -16.4090    18.0130 hc         1 4RI       0.030367
     24 H4         -10.6900   -17.2320    16.5920 hc         1 4RI       0.034700
     25 H5          -9.5510   -16.6530    17.7870 hc         1 4RI       0.034700
     26 H6         -10.3650   -14.3240    17.4430 hc         1 4RI       0.039200
     27 H7         -11.5050   -14.8900    16.2400 hc         1 4RI       0.039200
     28 H8          -9.6180   -15.7560    14.8510 hc         1 4RI       0.039700
     29 H9          -8.4680   -15.1580    16.0220 hc         1 4RI       0.039700
     30 H10         -8.8000   -13.6610    14.0040 hc         1 4RI       0.047200
     31 H11        -10.4640   -13.4240    14.4850 hc         1 4RI       0.047200
     32 H12         -9.2200   -11.5090    15.1970 hc         1 4RI       0.057200
     33 H13         -9.6670   -12.3890    16.6410 hc         1 4RI       0.057200
     34 H14         -4.9780   -11.8210    13.4330 hn         1 4RI       0.430800
     35 H15         -3.6420   -11.9920    14.4790 hn         1 4RI       0.430800
     36 H16         -4.1630   -12.7740    18.8510 hn         1 4RI       0.435300
     37 H17         -5.7000   -12.8800    19.5940 hn         1 4RI       0.435300
     38 H18         -8.7280   -10.9370    18.6800 ha         1 4RI       0.135500
     39 H19        -10.2010   -11.3640    20.6080 ha         1 4RI       0.131000
     40 H20        -10.3100   -13.6240    21.6130 ha         1 4RI       0.130000
     41 H21         -8.9380   -15.4550    20.6640 ha         1 4RI       0.131000
     42 H22         -7.4870   -15.0310    18.7200 ha         1 4RI       0.135500
@<TRIPOS>BOND
     1     1     2 ar  
     2     1     5 ar  
     3     1    11 1   
     4     2     3 ar  
     5     2    15 1   
     6     3     4 ar  
     7     3    14 1   
     8     4    12 ar  
     9     5    12 ar  
    10     6     7 1   
    11     6    21 1   
    12     6    22 1   
    13     6    23 1   
    14     7     8 1   
    15     7    24 1   
    16     7    25 1   
    17     8     9 1   
    18     8    26 1   
    19     8    27 1   
    20     9    10 1   
    21     9    28 1   
    22     9    29 1   
    23    10    11 1   
    24    10    30 1   
    25    10    31 1   
    26    11    32 1   
    27    11    33 1   
    28    12    13 1   
    29    13    34 1   
    30    13    35 1   
    31    14    36 1   
    32    14    37 1   
    33    15    16 ar  
    34    15    20 ar  
    35    16    17 ar  
    36    16    38 1   
    37    17    18 ar  
    38    17    39 1   
    39    18    19 ar  
    40    18    40 1   
    41    19    20 ar  
    42    19    41 1   
    43    20    42 1   
@<TRIPOS>SUBSTRUCTURE
     1 4RI         1 TEMP              0 ****  ****    0 ROOT
