@<TRIPOS>MOLECULE
4RI
   42    43     1     0     0
SMALL
No Charge or Current Charge


@<TRIPOS>ATOM
      1 C4          -7.5270   -12.4470    16.0400 ca         1 4RI       0.209300
      2 C5          -7.0610   -12.7540    17.3510 cp         1 4RI      -0.271000
      3 C6          -5.6560   -12.7660    17.5070 ca         1 4RI       0.422900
      4 N1          -4.8030   -12.5000    16.5160 nb         1 4RI      -0.331000
      5 N3          -6.6640   -12.1790    15.0380 nb         1 4RI      -0.292000
      6 CAO        -11.7190   -16.4420    18.5820 c3         1 4RI      -0.089100
      7 CAN        -10.6220   -16.3870    17.5020 c3         1 4RI      -0.073400
      8 CAM        -10.5880   -15.0420    16.7440 c3         1 4RI      -0.079400
      9 CAL         -9.4780   -14.9820    15.6680 c3         1 4RI      -0.075400
     10 CAK         -9.4570   -13.6680    14.8500 c3         1 4RI      -0.064400
     11 CAJ         -9.0020   -12.4100    15.6330 c3         1 4RI      -0.133700
     12 C2          -5.3630   -12.2230    15.3380 ca         1 4RI       0.410900
     13 NAI         -4.5080   -11.9480    14.3280 nv         1 4RI      -1.052900
     14 NAH         -5.0620   -13.0240    18.6980 nv         1 4RI      -1.069900
     15 CAG         -7.9780   -13.0490    18.4930 cp         1 4RI      -0.013000
     16 CAP         -8.8460   -12.0550    19.0060 ca         1 4RI      -0.105000
     17 CAQ         -9.7030   -12.3330    20.0850 ca         1 4RI      -0.113500
     18 CAR         -9.6990   -13.6080    20.6750 ca         1 4RI      -0.112000
     19 CAS         -8.8360   -14.6030    20.1870 ca         1 4RI      -0.113500
     20 CAT         -7.9820   -14.3240    19.1060 ca         1 4RI      -0.105000
     21 H1         -11.6970   -17.4090    19.0990 hc         1 4RI       0.030367
     22 H2         -11.5720   -15.6510    19.3270 hc         1 4RI       0.030367
     23 H3         -12.7110   -16.3150    18.1330 hc         1 4RI       0.030367
     24 H4         -10.7830   -17.2030    16.7880 hc         1 4RI       0.034700
     25 H5          -9.6480   -16.5640    17.9740 hc         1 4RI       0.034700
     26 H6         -10.4480   -14.2310    17.4670 hc         1 4RI       0.039200
     27 H7         -11.5610   -14.8760    16.2660 hc         1 4RI       0.039200
     28 H8          -9.6230   -15.8170    14.9720 hc         1 4RI       0.039700
     29 H9          -8.4990   -15.1380    16.1390 hc         1 4RI       0.039700
     30 H10         -8.7970   -13.8030    13.9840 hc         1 4RI       0.047200
     31 H11        -10.4600   -13.4890    14.4430 hc         1 4RI       0.047200
     32 H12         -9.1740   -11.5340    14.9970 hc         1 4RI       0.057200
     33 H13         -9.6560   -12.2640    16.4970 hc         1 4RI       0.057200
     34 H14         -4.8810   -11.5160    13.4870 hn         1 4RI       0.486000
     35 H15         -3.5370   -11.7500    14.5550 hn         1 4RI       0.486000
     36 H16         -4.0840   -12.7740    18.8090 hn         1 4RI       0.490500
     37 H17         -5.6410   -13.0110    19.5320 hn         1 4RI       0.490500
     38 H18         -8.8500   -11.0630    18.5610 ha         1 4RI       0.117500
     39 H19        -10.3670   -11.5600    20.4650 ha         1 4RI       0.113000
     40 H20        -10.3630   -13.8240    21.5090 ha         1 4RI       0.112000
     41 H21         -8.8320   -15.5910    20.6420 ha         1 4RI       0.113000
     42 H22         -7.3220   -15.1020    18.7310 ha         1 4RI       0.117500
@<TRIPOS>BOND
     1     1     2 ar  
     2     1     5 ar  
     3     1    11 1   
     4     2     3 ar  
     5     2    15 1   
     6     3     4 ar  
     7     3    14 1   
     8     4    12 ar  
     9     5    12 ar  
    10     6     7 1   
    11     6    21 1   
    12     6    22 1   
    13     6    23 1   
    14     7     8 1   
    15     7    24 1   
    16     7    25 1   
    17     8     9 1   
    18     8    26 1   
    19     8    27 1   
    20     9    10 1   
    21     9    28 1   
    22     9    29 1   
    23    10    11 1   
    24    10    30 1   
    25    10    31 1   
    26    11    32 1   
    27    11    33 1   
    28    12    13 1   
    29    13    34 1   
    30    13    35 1   
    31    14    36 1   
    32    14    37 1   
    33    15    16 ar  
    34    15    20 ar  
    35    16    17 ar  
    36    16    38 1   
    37    17    18 ar  
    38    17    39 1   
    39    18    19 ar  
    40    18    40 1   
    41    19    20 ar  
    42    19    41 1   
    43    20    42 1   
@<TRIPOS>SUBSTRUCTURE
     1 4RI         1 TEMP              0 ****  ****    0 ROOT
