@<TRIPOS>MOLECULE
4RJ
   53    56     1     0     0
SMALL
No Charge or Current Charge


@<TRIPOS>ATOM
      1 C01         -7.1970     5.8880     0.1330 c3         1 4RJ      -0.086100
      2 C02         -5.7440     5.3810     0.1620 c3         1 4RJ      -0.030100
      3 C03         -5.6660     3.8600     0.1360 ca         1 4RJ      -0.084300
      4 C04         -5.5980     3.1730    -1.0910 ca         1 4RJ      -0.097500
      5 C05         -5.5300     1.7690    -1.1140 ca         1 4RJ      -0.113500
      6 C06         -5.5270     1.0410     0.0880 ca         1 4RJ       0.147400
      7 C07         -5.6000     1.7240     1.3130 ca         1 4RJ      -0.113500
      8 C08         -5.6690     3.1280     1.3390 ca         1 4RJ      -0.097500
      9 N09         -5.4530    -0.3610     0.0640 ne         1 4RJ      -0.626100
     10 C10         -4.3370    -1.0450     0.0840 cd         1 4RJ       0.533800
     11 S11         -2.7330    -0.2730     0.1490 ss         1 4RJ      -0.183800
     12 C12         -1.9340    -1.8320     0.1660 cc         1 4RJ      -0.131600
     13 C13         -0.5750    -2.0410     0.2220 cf         1 4RJ      -0.027200
     14 C14          0.6320    -1.1800     0.2820 ca         1 4RJ      -0.019800
     15 C15          1.9050    -1.7780     0.3330 ca         1 4RJ      -0.220000
     16 C16          3.0560    -0.9780     0.3770 ca         1 4RJ       0.634900
     17 N17          4.2960    -1.5670     0.4770 nu         1 4RJ      -0.910800
     18 C18          5.5780    -1.1900     0.1590 ca         1 4RJ       0.557900
     19 C19          6.6650    -1.8210     0.7760 ca         1 4RJ      -0.242000
     20 C20          7.9690    -1.4590     0.4040 ca         1 4RJ      -0.033000
     21 C21          8.1280    -0.4760    -0.5940 ca         1 4RJ      -0.195600
     22 C22          6.9710     0.0820    -1.1670 ca         1 4RJ       0.370900
     23 N23          5.7150    -0.2730    -0.8050 nb         1 4RJ      -0.706000
     24 C24          9.4840    -0.0250    -1.0570 c          1 4RJ       0.719600
     25 O25         10.4700    -0.5320    -0.5430 o          1 4RJ      -0.717500
     26 O26          9.5500     0.8290    -1.9270 o          1 4RJ      -0.717500
     27 N27          3.0190     0.3590     0.4110 nb         1 4RJ      -0.657000
     28 C28          1.8080     0.9480     0.3600 ca         1 4RJ       0.375900
     29 C29          0.6040     0.2280     0.2930 ca         1 4RJ      -0.209000
     30 C30         -2.8980    -2.9350     0.1170 c          1 4RJ       0.585200
     31 O31         -2.6310    -4.1300     0.1210 o          1 4RJ      -0.509000
     32 N32         -4.1870    -2.4200     0.0640 n          1 4RJ      -0.332300
     33 C33         -5.3460    -3.3390     0.0150 c3         1 4RJ       0.100300
     34 H1          -7.2210     6.9840     0.1530 hc         1 4RJ       0.033367
     35 H2          -7.7070     5.5490    -0.7760 hc         1 4RJ       0.033367
     36 H3          -7.7540     5.5160     1.0020 hc         1 4RJ       0.033367
     37 H4          -5.2020     5.8040    -0.6930 hc         1 4RJ       0.046200
     38 H5          -5.2480     5.7710     1.0600 hc         1 4RJ       0.046200
     39 H6          -5.6000     3.7260    -2.0280 ha         1 4RJ       0.112000
     40 H7          -5.4770     1.2450    -2.0650 ha         1 4RJ       0.122500
     41 H8          -5.6020     1.1650     2.2460 ha         1 4RJ       0.122500
     42 H9          -5.7250     3.6460     2.2940 ha         1 4RJ       0.112000
     43 H11         -0.3180    -3.1020     0.2230 ha         1 4RJ       0.200000
     44 H12          2.0060    -2.8590     0.3320 ha         1 4RJ       0.116000
     45 H13          4.2520    -2.4960     0.8750 hn         1 4RJ       0.487000
     46 H14          6.5050    -2.5790     1.5380 ha         1 4RJ       0.093000
     47 H15          8.8280    -1.9320     0.8770 ha         1 4RJ       0.133000
     48 H16          7.0350     0.8390    -1.9480 h4         1 4RJ       0.037100
     49 H18          1.8000     2.0370     0.3790 h4         1 4RJ       0.019100
     50 H19         -0.3210     0.7870     0.2570 ha         1 4RJ       0.123000
     51 H20         -6.2330    -2.8260    -0.3780 h1         1 4RJ       0.054033
     52 H21         -5.1250    -4.1930    -0.6380 h1         1 4RJ       0.054033
     53 H22         -5.5660    -3.7080     1.0250 h1         1 4RJ       0.054033
@<TRIPOS>BOND
     1     1     2 1   
     2     1    34 1   
     3     1    35 1   
     4     1    36 1   
     5     2     3 1   
     6     2    37 1   
     7     2    38 1   
     8     3     4 ar  
     9     3     8 ar  
    10     4     5 ar  
    11     4    39 1   
    12     5     6 ar  
    13     5    40 1   
    14     6     7 ar  
    15     6     9 1   
    16     7     8 ar  
    17     7    41 1   
    18     8    42 1   
    19     9    10 2   
    20    10    11 1   
    21    10    32 1   
    22    11    12 1   
    23    12    13 2   
    24    12    30 1   
    25    13    14 1   
    26    13    43 1   
    27    14    15 ar  
    28    14    29 ar  
    29    15    16 ar  
    30    15    44 1   
    31    16    17 1   
    32    16    27 ar  
    33    17    18 1   
    34    17    45 1   
    35    18    19 ar  
    36    18    23 ar  
    37    19    20 ar  
    38    19    46 1   
    39    20    21 ar  
    40    20    47 1   
    41    21    22 ar  
    42    21    24 1   
    43    22    23 ar  
    44    22    48 1   
    45    24    25 1   
    46    24    26 1   
    47    27    28 ar  
    48    28    29 ar  
    49    28    49 1   
    50    29    50 1   
    51    30    31 2   
    52    30    32 1   
    53    32    33 1   
    54    33    51 1   
    55    33    52 1   
    56    33    53 1   
@<TRIPOS>SUBSTRUCTURE
     1 4RJ         1 TEMP              0 ****  ****    0 ROOT
