@<TRIPOS>MOLECULE
4RJ
   53    56     1     0     0
SMALL
bcc


@<TRIPOS>ATOM
      1 C01         -6.9670     5.8030     0.5510 c3         1 4RJ      -0.086100
      2 C02         -5.6220     5.3070     0.0220 c3         1 4RJ      -0.030100
      3 C03         -5.5150     3.8080     0.0620 ca         1 4RJ      -0.084300
      4 C04         -6.0680     3.0280    -0.9540 ca         1 4RJ      -0.115500
      5 C05         -6.0180     1.6450    -0.9110 ca         1 4RJ      -0.131500
      6 C06         -5.3910     0.9980     0.1530 ca         1 4RJ       0.147400
      7 C07         -4.8450     1.7650     1.1810 ca         1 4RJ      -0.131500
      8 C08         -4.9120     3.1510     1.1290 ca         1 4RJ      -0.115500
      9 N09         -5.3650    -0.4010     0.1820 ne         1 4RJ      -0.626100
     10 C10         -4.2660    -1.0140     0.1410 cd         1 4RJ       0.533800
     11 S11         -2.6610    -0.2770    -0.0240 ss         1 4RJ      -0.183800
     12 C12         -1.9050    -1.8510    -0.0550 cc         1 4RJ      -0.131600
     13 C13         -0.6030    -2.1550    -0.1310 cf         1 4RJ       0.022800
     14 C14          0.5500    -1.2710    -0.2180 ca         1 4RJ      -0.019800
     15 C15          1.7980    -1.8250     0.0270 ca         1 4RJ      -0.303300
     16 C16          2.9390    -1.0100    -0.0050 ca         1 4RJ       0.700200
     17 N17          4.1460    -1.5990     0.2910 nu         1 4RJ      -0.855600
     18 C18          5.4390    -1.1360     0.1470 ca         1 4RJ       0.623200
     19 C19          6.4600    -1.8690     0.7730 ca         1 4RJ      -0.325300
     20 C20          7.7600    -1.4430     0.6220 ca         1 4RJ      -0.051000
     21 C21          8.0420    -0.3020    -0.1320 ca         1 4RJ      -0.260900
     22 C22          6.9520     0.3350    -0.7050 ca         1 4RJ       0.436200
     23 N23          5.6870    -0.0610    -0.5830 nb         1 4RJ      -0.706000
     24 C24          9.4580     0.2070    -0.3150 c          1 4RJ       0.930200
     25 O25         10.3590    -0.4530     0.2380 o          1 4RJ      -0.822800
     26 O26          9.5980     1.2400    -0.9970 o          1 4RJ      -0.822800
     27 N27          2.8750     0.2840    -0.2780 nb         1 4RJ      -0.657000
     28 C28          1.6800     0.8020    -0.5460 ca         1 4RJ       0.441200
     29 C29          0.4960     0.0940    -0.5320 ca         1 4RJ      -0.292300
     30 C30         -2.9250    -2.9260     0.0740 c          1 4RJ       0.727700
     31 O31         -2.6860    -4.1120     0.0790 o          1 4RJ      -0.584500
     32 N32         -4.1770    -2.3840     0.1890 n          1 4RJ      -0.399300
     33 C33         -5.3760    -3.1850     0.3360 c3         1 4RJ       0.100300
     34 H1          -7.0330     6.8900     0.4920 hc         1 4RJ       0.033367
     35 H2          -7.7940     5.3860    -0.0250 hc         1 4RJ       0.033367
     36 H3          -7.1090     5.5160     1.5930 hc         1 4RJ       0.033367
     37 H4          -5.4850     5.6560    -1.0040 hc         1 4RJ       0.046200
     38 H5          -4.8150     5.7500     0.6110 hc         1 4RJ       0.046200
     39 H6          -6.5460     3.5110    -1.7980 ha         1 4RJ       0.130000
     40 H7          -6.4540     1.0580    -1.7100 ha         1 4RJ       0.140500
     41 H8          -4.3830     1.2800     2.0330 ha         1 4RJ       0.140500
     42 H9          -4.4790     3.7270     1.9390 ha         1 4RJ       0.130000
     43 H11         -0.3720    -3.2140    -0.0900 ha         1 4RJ       0.150000
     44 H12          1.8920    -2.8810     0.2480 ha         1 4RJ       0.134000
     45 H13          4.0750    -2.5220     0.6900 hn         1 4RJ       0.431800
     46 H14          6.2270    -2.7480     1.3610 ha         1 4RJ       0.111000
     47 H15          8.5650    -1.9900     1.0950 ha         1 4RJ       0.151000
     48 H16          7.1080     1.2210    -1.3100 h4         1 4RJ       0.037100
     49 H18          1.6670     1.8600    -0.7840 h4         1 4RJ       0.019100
     50 H19         -0.4170     0.6070    -0.7940 ha         1 4RJ       0.141000
     51 H20         -6.0450    -3.0220    -0.5070 h1         1 4RJ       0.054033
     52 H21         -5.0940    -4.2310     0.3720 h1         1 4RJ       0.054033
     53 H22         -5.8910    -2.9200     1.2560 h1         1 4RJ       0.054033
@<TRIPOS>BOND
     1     1     2 1   
     2     1    34 1   
     3     1    35 1   
     4     1    36 1   
     5     2     3 1   
     6     2    37 1   
     7     2    38 1   
     8     3     4 ar  
     9     3     8 ar  
    10     4     5 ar  
    11     4    39 1   
    12     5     6 ar  
    13     5    40 1   
    14     6     7 ar  
    15     6     9 1   
    16     7     8 ar  
    17     7    41 1   
    18     8    42 1   
    19     9    10 2   
    20    10    11 1   
    21    10    32 1   
    22    11    12 1   
    23    12    13 2   
    24    12    30 1   
    25    13    14 1   
    26    13    43 1   
    27    14    15 ar  
    28    14    29 ar  
    29    15    16 ar  
    30    15    44 1   
    31    16    17 1   
    32    16    27 ar  
    33    17    18 1   
    34    17    45 1   
    35    18    19 ar  
    36    18    23 ar  
    37    19    20 ar  
    38    19    46 1   
    39    20    21 ar  
    40    20    47 1   
    41    21    22 ar  
    42    21    24 1   
    43    22    23 ar  
    44    22    48 1   
    45    24    25 1   
    46    24    26 1   
    47    27    28 ar  
    48    28    29 ar  
    49    28    49 1   
    50    29    50 1   
    51    30    31 2   
    52    30    32 1   
    53    32    33 1   
    54    33    51 1   
    55    33    52 1   
    56    33    53 1   
@<TRIPOS>SUBSTRUCTURE
     1 4RJ         1 TEMP              0 ****  ****    0 ROOT
