@<TRIPOS>MOLECULE
4RK
   57    61     1     0     0
SMALL
bcc


@<TRIPOS>ATOM
      1 C01         -4.8660     6.0870    -0.6630 c3         1 4RK      -0.087100
      2 C02         -6.0660     5.5460     0.1130 c3         1 4RK      -0.032100
      3 C03         -6.0950     4.0430     0.1340 ca         1 4RK      -0.077300
      4 C04         -6.6760     3.3190    -0.9060 ca         1 4RK      -0.115500
      5 C05         -6.6730     1.9340    -0.9110 ca         1 4RK      -0.128500
      6 C06         -6.0650     1.2290     0.1270 ca         1 4RK       0.136400
      7 C07         -5.4900     1.9410     1.1800 ca         1 4RK      -0.128500
      8 C08         -5.5090     3.3280     1.1750 ca         1 4RK      -0.115500
      9 N09         -6.0930    -0.1700     0.1150 ne         1 4RK      -0.603100
     10 C10         -5.0200    -0.8250     0.0810 cd         1 4RK       0.531800
     11 S11         -3.3830    -0.1510    -0.0430 ss         1 4RK      -0.193800
     12 C12         -2.6890    -1.7520    -0.0940 cc         1 4RK      -0.095600
     13 C13         -1.4010    -2.1130    -0.1750 cf         1 4RK      -0.020200
     14 C14         -0.2030    -1.2900    -0.2500 ca         1 4RK       0.008200
     15 C15          1.0180    -1.9380    -0.1530 ca         1 4RK      -0.288300
     16 C16          2.2060    -1.1900    -0.1960 ca         1 4RK       0.681200
     17 N17          3.3940    -1.8690    -0.0900 nu         1 4RK      -0.745300
     18 C18          4.7000    -1.4260    -0.0680 ca         1 4RK       0.207600
     19 C19          5.1020    -0.0870    -0.1570 ca         1 4RK      -0.185500
     20 C20          6.4450     0.2370    -0.1180 ca         1 4RK      -0.059000
     21 C21          7.4300    -0.7390     0.0060 ca         1 4RK      -0.190500
     22 C22          7.0300    -2.0730     0.0920 ca         1 4RK      -0.059000
     23 C23          5.6950    -2.4100     0.0560 ca         1 4RK      -0.185500
     24 C24          8.8280    -0.3500     0.0440 cc         1 4RK       0.474000
     25 N25          9.8830    -1.1670     0.1400 na         1 4RK      -0.168400
     26 N26         10.9930    -0.4470     0.1460 nc         1 4RK      -0.208800
     27 N27         10.6300     0.7700     0.0560 nd         1 4RK      -0.041000
     28 N28          9.3060     0.8760    -0.0100 nd         1 4RK      -0.394000
     29 N29          2.2040     0.1260    -0.3340 nb         1 4RK      -0.720000
     30 C30          1.0310     0.7430    -0.4410 ca         1 4RK       0.447200
     31 C31         -0.1900     0.1050    -0.4090 ca         1 4RK      -0.267300
     32 C32         -3.7540    -2.7890     0.0020 c          1 4RK       0.723700
     33 O33         -3.5620    -3.9820    -0.0070 o          1 4RK      -0.574500
     34 N34         -4.9850    -2.1990     0.1050 n          1 4RK      -0.398300
     35 C35         -6.2170    -2.9530     0.2250 c3         1 4RK       0.099300
     36 H1          -3.9280     5.7320    -0.2340 hc         1 4RK       0.035700
     37 H2          -4.8960     5.7690    -1.7060 hc         1 4RK       0.035700
     38 H3          -4.8510     7.1770    -0.6460 hc         1 4RK       0.035700
     39 H4          -6.0350     5.9250     1.1370 hc         1 4RK       0.047200
     40 H5          -6.9870     5.9270    -0.3330 hc         1 4RK       0.047200
     41 H6          -7.1460     3.8470    -1.7270 ha         1 4RK       0.133000
     42 H7          -7.1370     1.3890    -1.7230 ha         1 4RK       0.141500
     43 H8          -5.0500     1.4120     2.0160 ha         1 4RK       0.141500
     44 H9          -5.0620     3.8610     2.0060 ha         1 4RK       0.133000
     45 H10         -1.2240    -3.1830    -0.1660 ha         1 4RK       0.154000
     46 H11          1.0580    -3.0150    -0.0410 ha         1 4RK       0.143000
     47 H12          3.2940    -2.8700    -0.0090 hn         1 4RK       0.441800
     48 H13          4.3690     0.6960    -0.2530 ha         1 4RK       0.154000
     49 H14          6.7270     1.2800    -0.1870 ha         1 4RK       0.141500
     50 H15          7.7540    -2.8720     0.1880 ha         1 4RK       0.141500
     51 H16          5.4120    -3.4530     0.1270 ha         1 4RK       0.154000
     52 H17          9.9310    -2.1740     0.2020 hn         1 4RK       0.333700
     53 H18          1.0710     1.8190    -0.5630 h4         1 4RK       0.026100
     54 H19         -1.0820     0.6990    -0.5270 ha         1 4RK       0.155000
     55 H20         -6.8610    -2.7650    -0.6310 h1         1 4RK       0.058367
     56 H21         -5.9760    -4.0100     0.2660 h1         1 4RK       0.058367
     57 H22         -6.7400    -2.6690     1.1350 h1         1 4RK       0.058367
@<TRIPOS>BOND
     1     1     2 1   
     2     1    36 1   
     3     1    37 1   
     4     1    38 1   
     5     2     3 1   
     6     2    39 1   
     7     2    40 1   
     8     3     4 ar  
     9     3     8 ar  
    10     4     5 ar  
    11     4    41 1   
    12     5     6 ar  
    13     5    42 1   
    14     6     7 ar  
    15     6     9 1   
    16     7     8 ar  
    17     7    43 1   
    18     8    44 1   
    19     9    10 2   
    20    10    11 1   
    21    10    34 1   
    22    11    12 1   
    23    12    13 2   
    24    12    32 1   
    25    13    14 1   
    26    13    45 1   
    27    14    15 ar  
    28    14    31 ar  
    29    15    16 ar  
    30    15    46 1   
    31    16    17 1   
    32    16    29 ar  
    33    17    18 1   
    34    17    47 1   
    35    18    19 ar  
    36    18    23 ar  
    37    19    20 ar  
    38    19    48 1   
    39    20    21 ar  
    40    20    49 1   
    41    21    22 ar  
    42    21    24 1   
    43    22    23 ar  
    44    22    50 1   
    45    23    51 1   
    46    24    25 1   
    47    24    28 2   
    48    25    26 1   
    49    25    52 1   
    50    26    27 2   
    51    27    28 1   
    52    29    30 ar  
    53    30    31 ar  
    54    30    53 1   
    55    31    54 1   
    56    32    33 2   
    57    32    34 1   
    58    34    35 1   
    59    35    55 1   
    60    35    56 1   
    61    35    57 1   
@<TRIPOS>SUBSTRUCTURE
     1 4RK         1 TEMP              0 ****  ****    0 ROOT
