@<TRIPOS>MOLECULE
4RK
   57    61     1     0     0
SMALL
No Charge or Current Charge


@<TRIPOS>ATOM
      1 C01         -4.7420     6.1500    -0.5440 c3         1 4RK      -0.087100
      2 C02         -6.1730     5.6030    -0.3820 c3         1 4RK      -0.032100
      3 C03         -6.1930     4.0900    -0.2180 ca         1 4RK      -0.077300
      4 C04         -6.2890     3.2530    -1.3460 ca         1 4RK      -0.097500
      5 C05         -6.3000     1.8550    -1.1930 ca         1 4RK      -0.110500
      6 C06         -6.2130     1.2830     0.0870 ca         1 4RK       0.136400
      7 C07         -6.1190     2.1150     1.2150 ca         1 4RK      -0.110500
      8 C08         -6.1070     3.5130     1.0650 ca         1 4RK      -0.097500
      9 N09         -6.2160    -0.1130     0.2380 ne         1 4RK      -0.603100
     10 C10         -5.1430    -0.8620     0.2370 cd         1 4RK       0.531800
     11 S11         -3.5020    -0.1950     0.0420 ss         1 4RK      -0.193800
     12 C12         -2.7900    -1.7890     0.1840 cc         1 4RK      -0.095600
     13 C13         -1.4450    -2.0770     0.1320 cf         1 4RK      -0.070200
     14 C14         -0.1960    -1.2950    -0.0410 ca         1 4RK       0.008200
     15 C15          1.0410    -1.9660    -0.0410 ca         1 4RK      -0.205000
     16 C16          2.2290    -1.2380    -0.1940 ca         1 4RK       0.615900
     17 N17          3.4450    -1.8860    -0.2290 nu         1 4RK      -0.938900
     18 C18          4.7780    -1.4750    -0.1520 ca         1 4RK       0.346000
     19 C19          5.1720    -0.3170     0.5400 ca         1 4RK      -0.167500
     20 C20          6.5280     0.0470     0.6130 ca         1 4RK      -0.041000
     21 C21          7.5200    -0.7490     0.0010 ca         1 4RK      -0.190500
     22 C22          7.1210    -1.9210    -0.6790 ca         1 4RK      -0.041000
     23 C23          5.7630    -2.2780    -0.7460 ca         1 4RK      -0.167500
     24 C24          8.9360    -0.3590     0.0830 cc         1 4RK       0.474000
     25 N25          9.9940    -1.0290    -0.4620 na         1 4RK      -0.218700
     26 N26         11.1570    -0.3860    -0.1890 nc         1 4RK      -0.208800
     27 N27         10.7960     0.6550     0.5110 nd         1 4RK      -0.041000
     28 N28          9.4330     0.6970     0.6950 nd         1 4RK      -0.394000
     29 N29          2.2660     0.0840    -0.3700 nb         1 4RK      -0.720000
     30 C30          1.0880     0.7420    -0.3730 ca         1 4RK       0.381900
     31 C31         -0.1510     0.1020    -0.2120 ca         1 4RK      -0.184000
     32 C32         -3.8120    -2.8260     0.3740 c          1 4RK       0.581200
     33 O33         -3.6110    -4.0260     0.5080 o          1 4RK      -0.499000
     34 N34         -5.0700    -2.2360     0.3830 n          1 4RK      -0.331300
     35 C35         -6.2760    -3.0740     0.5680 c3         1 4RK       0.099300
     36 H1          -4.1340     5.9070     0.3360 hc         1 4RK       0.035700
     37 H2          -4.2600     5.7170    -1.4280 hc         1 4RK       0.035700
     38 H3          -4.7590     7.2400    -0.6600 hc         1 4RK       0.035700
     39 H4          -6.6430     6.0860     0.4840 hc         1 4RK       0.047200
     40 H5          -6.7670     5.8980    -1.2560 hc         1 4RK       0.047200
     41 H6          -6.3520     3.6850    -2.3430 ha         1 4RK       0.115000
     42 H7          -6.3730     1.2160    -2.0690 ha         1 4RK       0.123500
     43 H8          -6.0520     1.6780     2.2080 ha         1 4RK       0.123500
     44 H9          -6.0300     4.1480     1.9450 ha         1 4RK       0.115000
     45 H10         -1.2450    -3.1440     0.2460 ha         1 4RK       0.204000
     46 H11          1.0860    -3.0430     0.0840 ha         1 4RK       0.125000
     47 H12          3.3380    -2.8780    -0.4170 hn         1 4RK       0.497000
     48 H13          4.4330     0.3010     1.0380 ha         1 4RK       0.136000
     49 H14          6.8010     0.9510     1.1550 ha         1 4RK       0.123500
     50 H15          7.8540    -2.5660    -1.1580 ha         1 4RK       0.123500
     51 H16          5.4770    -3.1840    -1.2730 ha         1 4RK       0.136000
     52 H17          9.9600    -1.8840    -1.0000 hn         1 4RK       0.384000
     53 H18          1.1380     1.8220    -0.5110 h4         1 4RK       0.026100
     54 H19         -1.0440     0.7110    -0.2280 ha         1 4RK       0.137000
     55 H20         -7.1700    -2.5560     0.2010 h1         1 4RK       0.058367
     56 H21         -6.1720    -4.0150     0.0120 h1         1 4RK       0.058367
     57 H22         -6.4060    -3.3000     1.6340 h1         1 4RK       0.058367
@<TRIPOS>BOND
     1     1     2 1   
     2     1    36 1   
     3     1    37 1   
     4     1    38 1   
     5     2     3 1   
     6     2    39 1   
     7     2    40 1   
     8     3     4 ar  
     9     3     8 ar  
    10     4     5 ar  
    11     4    41 1   
    12     5     6 ar  
    13     5    42 1   
    14     6     7 ar  
    15     6     9 1   
    16     7     8 ar  
    17     7    43 1   
    18     8    44 1   
    19     9    10 2   
    20    10    11 1   
    21    10    34 1   
    22    11    12 1   
    23    12    13 2   
    24    12    32 1   
    25    13    14 1   
    26    13    45 1   
    27    14    15 ar  
    28    14    31 ar  
    29    15    16 ar  
    30    15    46 1   
    31    16    17 1   
    32    16    29 ar  
    33    17    18 1   
    34    17    47 1   
    35    18    19 ar  
    36    18    23 ar  
    37    19    20 ar  
    38    19    48 1   
    39    20    21 ar  
    40    20    49 1   
    41    21    22 ar  
    42    21    24 1   
    43    22    23 ar  
    44    22    50 1   
    45    23    51 1   
    46    24    25 1   
    47    24    28 2   
    48    25    26 1   
    49    25    52 1   
    50    26    27 2   
    51    27    28 1   
    52    29    30 ar  
    53    30    31 ar  
    54    30    53 1   
    55    31    54 1   
    56    32    33 2   
    57    32    34 1   
    58    34    35 1   
    59    35    55 1   
    60    35    56 1   
    61    35    57 1   
@<TRIPOS>SUBSTRUCTURE
     1 4RK         1 TEMP              0 ****  ****    0 ROOT
