@<TRIPOS>MOLECULE
4RL
   82    83     1     0     0
SMALL
abcg2


@<TRIPOS>ATOM
      1 C1          -1.2340     2.1730    -1.0790 c          1 4RL       0.573000
      2 C2          -0.8930     2.0940     1.7860 c          1 4RL       0.563000
      3 C3          -2.0230     1.3560     1.0990 c6         1 4RL       0.004700
      4 C4           0.1430     2.3140    -0.4540 c6         1 4RL       0.052700
      5 N5           3.0900     0.1420    -0.1490 ns         1 4RL      -0.484900
      6 C8          -3.5590    -2.3990    -1.2130 c3         1 4RL       0.111500
      7 C9          -2.4750    -1.4620    -0.7080 c          1 4RL       0.604100
      8 C10         -3.1930    -3.8300    -0.8070 c3         1 4RL      -0.252400
      9 C13         -4.6630     5.3510     0.1680 ca         1 4RL      -0.115500
     10 C14         -3.9490     4.2860    -0.3600 ca         1 4RL      -0.096000
     11 C15         -4.3830     2.9750    -0.1620 ca         1 4RL      -0.104300
     12 C16         -5.5400     2.7550     0.5760 ca         1 4RL      -0.096000
     13 C17         -6.2600     3.8210     1.1040 ca         1 4RL      -0.115500
     14 C20          5.2310    -0.8610    -0.6650 c          1 4RL       0.590100
     15 C21          4.5610    -0.4740     1.7550 c3         1 4RL      -0.062700
     16 C22          4.1670    -1.9460     1.8870 c3         1 4RL      -0.078400
     17 C23          3.7570     0.4270     2.6880 c3         1 4RL      -0.088100
     18 C24          4.3240    -2.4980     3.2990 c3         1 4RL      -0.088100
     19 C27          7.4930    -1.3290    -2.7630 c3         1 4RL      -0.103767
     20 C28          7.3950    -3.0520    -0.9300 c3         1 4RL      -0.103767
     21 C26          8.9260    -1.0950    -0.7390 c3         1 4RL      -0.103767
     22 N6           6.5610    -0.7630    -0.5480 ns         1 4RL      -0.507900
     23 C19          4.4540     0.0400     0.3000 c3         1 4RL       0.025700
     24 C5           1.0410     1.1550    -0.8910 c3         1 4RL      -0.181400
     25 O1          -1.3760     2.4370    -2.2620 o          1 4RL      -0.551000
     26 N1           0.0940     2.4950     0.9790 ns         1 4RL      -0.499900
     27 O2          -0.8870     2.2450     2.9970 o          1 4RL      -0.569000
     28 C6          -1.7370    -0.1560     1.2350 c3         1 4RL       0.094000
     29 N3          -2.6790    -0.9830     0.5370 ns         1 4RL      -0.519900
     30 O4          -1.4770    -1.2060    -1.3640 o          1 4RL      -0.627100
     31 N4          -3.7340    -2.1910    -2.6380 n8         1 4RL      -0.999200
     32 C18         -4.2660    -4.8900    -1.1350 c          1 4RL       0.715000
     33 O5          -3.9160    -6.0770    -0.9900 o          1 4RL      -0.731000
     34 O7          -5.3920    -4.4870    -1.4930 o          1 4RL      -0.731000
     35 N2          -2.2360     1.7880    -0.2690 n          1 4RL      -0.384800
     36 C11         -3.6150     1.8140    -0.7410 c3         1 4RL       0.138300
     37 C12         -5.8220     5.1220     0.9020 ca         1 4RL      -0.113000
     38 H1          -2.9330     1.5880     1.6560 h1         1 4RL       0.088700
     39 H2           0.5530     3.2340    -0.8740 h1         1 4RL       0.090700
     40 H3           2.6390    -0.7100    -0.4440 hn         1 4RL       0.342500
     41 H4          -4.5030    -2.1370    -0.7260 h1         1 4RL       0.068700
     42 H5          -2.2500    -4.1150    -1.2860 hc         1 4RL       0.033200
     43 H6          -3.0020    -3.8800     0.2710 hc         1 4RL       0.033200
     44 H8          -3.0550     4.4810    -0.9400 ha         1 4RL       0.118000
     45 H9          -5.8860     1.7410     0.7400 ha         1 4RL       0.118000
     46 H10         -7.1590     3.6330     1.6770 ha         1 4RL       0.108000
     47 H11          5.6170    -0.3840     2.0350 hc         1 4RL       0.037700
     48 H12          3.1310    -2.0850     1.5590 hc         1 4RL       0.049200
     49 H13          4.7850    -2.5510     1.2170 hc         1 4RL       0.049200
     50 H14          3.9810     0.2100     3.7310 hc         1 4RL       0.040367
     51 H15          3.9830     1.4800     2.5180 hc         1 4RL       0.040367
     52 H16          2.6840     0.2900     2.5470 hc         1 4RL       0.040367
     53 H17          5.3360    -2.3370     3.6750 hc         1 4RL       0.031700
     54 H18          3.6320    -2.0350     4.0030 hc         1 4RL       0.031700
     55 H19          4.1330    -3.5710     3.3160 hc         1 4RL       0.031700
     56 H20          6.5420    -1.6570    -3.1790 hc         1 4RL       0.044033
     57 H21          7.6220    -0.2700    -2.9940 hc         1 4RL       0.044033
     58 H22          8.2880    -1.8810    -3.2650 hc         1 4RL       0.044033
     59 H23          8.2010    -3.6280    -1.3870 hc         1 4RL       0.044033
     60 H24          7.4350    -3.2170     0.1480 hc         1 4RL       0.044033
     61 H25          6.4490    -3.4410    -1.3020 hc         1 4RL       0.044033
     62 H26          9.0780    -0.0320    -0.9370 hc         1 4RL       0.044033
     63 H27          9.0250    -1.2610     0.3360 hc         1 4RL       0.044033
     64 H28          9.7260    -1.6440    -1.2350 hc         1 4RL       0.044033
     65 H29          6.9140    -0.0730     0.0970 hn         1 4RL       0.309500
     66 H30          4.8850     1.0430     0.2710 h1         1 4RL       0.085700
     67 H31          0.6040     0.1950    -0.6180 hc         1 4RL       0.098200
     68 H32          1.1100     1.1610    -1.9820 hc         1 4RL       0.098200
     69 H33          0.8770     2.9720     1.4030 hn         1 4RL       0.331500
     70 H34         -0.7360    -0.3850     0.8720 h1         1 4RL       0.059700
     71 H35         -1.7610    -0.4110     2.2950 h1         1 4RL       0.059700
     72 H36         -3.5250    -1.2420     1.0180 hn         1 4RL       0.320500
     73 H37         -2.8800    -2.4450    -3.1210 hn         1 4RL       0.413000
     74 H38         -4.4400    -2.8470    -2.9480 hn         1 4RL       0.413000
     75 H41         -4.1020     0.8780    -0.4720 h1         1 4RL       0.085200
     76 H42         -3.6040     1.8630    -1.8290 h1         1 4RL       0.085200
     77 H43         -6.3790     5.9540     1.3120 ha         1 4RL       0.105000
     78 C7           2.4420     1.3030    -0.3330 c          1 4RL       0.609100
     79 O6           4.6520    -1.6130    -1.4350 o          1 4RL      -0.600100
     80 O3           2.9220     2.4000    -0.0860 o          1 4RL      -0.638100
     81 C25          7.5680    -1.5670    -1.2540 c3         1 4RL       0.139400
     82 H7          -4.3160     6.3630     0.0040 ha         1 4RL       0.108000
@<TRIPOS>BOND
     1     1     4 1   
     2     1    25 2   
     3     1    35 1   
     4     2     3 1   
     5     2    26 1   
     6     2    27 2   
     7     3    28 1   
     8     3    35 1   
     9     3    38 1   
    10     4    24 1   
    11     4    26 1   
    12     4    39 1   
    13     5    23 1   
    14     5    40 1   
    15     5    78 1   
    16     6     7 1   
    17     6     8 1   
    18     6    31 1   
    19     6    41 1   
    20     7    29 1   
    21     7    30 2   
    22     8    32 1   
    23     8    42 1   
    24     8    43 1   
    25     9    10 ar  
    26     9    37 ar  
    27     9    82 1   
    28    10    11 ar  
    29    10    44 1   
    30    11    12 ar  
    31    11    36 1   
    32    12    13 ar  
    33    12    45 1   
    34    13    37 ar  
    35    13    46 1   
    36    14    22 1   
    37    14    23 1   
    38    14    79 2   
    39    15    16 1   
    40    15    17 1   
    41    15    23 1   
    42    15    47 1   
    43    16    18 1   
    44    16    48 1   
    45    16    49 1   
    46    17    50 1   
    47    17    51 1   
    48    17    52 1   
    49    18    53 1   
    50    18    54 1   
    51    18    55 1   
    52    19    56 1   
    53    19    57 1   
    54    19    58 1   
    55    19    81 1   
    56    20    59 1   
    57    20    60 1   
    58    20    61 1   
    59    20    81 1   
    60    21    62 1   
    61    21    63 1   
    62    21    64 1   
    63    21    81 1   
    64    22    65 1   
    65    22    81 1   
    66    23    66 1   
    67    24    67 1   
    68    24    68 1   
    69    24    78 1   
    70    26    69 1   
    71    28    29 1   
    72    28    70 1   
    73    28    71 1   
    74    29    72 1   
    75    31    73 1   
    76    31    74 1   
    77    32    33 1   
    78    32    34 1   
    79    35    36 1   
    80    36    75 1   
    81    36    76 1   
    82    37    77 1   
    83    78    80 2   
@<TRIPOS>SUBSTRUCTURE
     1 4RL         1 TEMP              0 ****  ****    0 ROOT
