@<TRIPOS>MOLECULE
4RL
   82    83     1     0     0
SMALL
No Charge or Current Charge


@<TRIPOS>ATOM
      1 C1          -1.3190     2.2360    -0.9270 c          1 4RL       0.573000
      2 C2          -0.2610     1.2270     1.6640 c          1 4RL       0.563000
      3 C3          -1.5260     0.6040     1.0240 c6         1 4RL       0.004700
      4 C4           0.1670     2.4430    -0.5150 c6         1 4RL       0.052700
      5 N5           3.1260     0.5640    -0.5490 ns         1 4RL      -0.484900
      6 C8          -3.5990    -2.4960    -1.9200 c3         1 4RL       0.111500
      7 C9          -2.3430    -1.6950    -1.4000 c          1 4RL       0.604100
      8 C10         -3.1890    -3.7780    -2.6850 c3         1 4RL      -0.252400
      9 C13         -5.2310     4.6520     0.6700 ca         1 4RL      -0.115500
     10 C14         -4.5480     3.6720    -0.0720 ca         1 4RL      -0.096000
     11 C15         -4.3260     2.3930     0.4740 ca         1 4RL      -0.104300
     12 C16         -4.7990     2.1030     1.7700 ca         1 4RL      -0.096000
     13 C17         -5.4820     3.0830     2.5110 ca         1 4RL      -0.115500
     14 C20          5.0820    -0.9780    -0.4870 c          1 4RL       0.590100
     15 C21          4.6700     0.7020     1.4440 c3         1 4RL      -0.062700
     16 C22          3.7930    -0.2550     2.3050 c3         1 4RL      -0.078400
     17 C23          4.4250     2.1940     1.7820 c3         1 4RL      -0.088100
     18 C24          4.0360    -0.1590     3.8260 c3         1 4RL      -0.088100
     19 C27          7.1960    -2.7370    -2.0440 c3         1 4RL      -0.103767
     20 C28          6.7700    -3.4960     0.3510 c3         1 4RL      -0.103767
     21 C26          8.7120    -1.9800    -0.1780 c3         1 4RL      -0.103767
     22 N6           6.4480    -1.1280    -0.3080 ns         1 4RL      -0.507900
     23 C19          4.5290     0.4240    -0.0890 c3         1 4RL       0.025700
     24 C5           1.0890     1.5940    -1.4390 c3         1 4RL      -0.181400
     25 O1          -1.7900     2.8430    -1.8810 o          1 4RL      -0.551000
     26 N1           0.4210     2.1520     0.9150 ns         1 4RL      -0.499900
     27 O2           0.0900     0.9750     2.8050 o          1 4RL      -0.569000
     28 C6          -1.1650    -0.8740     0.6760 c3         1 4RL       0.094000
     29 N3          -2.2210    -1.6140    -0.0260 ns         1 4RL      -0.519900
     30 O4          -1.5350    -1.1600    -2.1520 o          1 4RL      -0.627100
     31 N4          -4.5540    -1.7070    -2.7600 n8         1 4RL      -0.999200
     32 C18         -4.3250    -4.8060    -2.6480 c          1 4RL       0.715000
     33 O5          -5.1520    -4.7800    -3.5460 o          1 4RL      -0.731000
     34 O7          -4.3800    -5.5640    -1.6930 o          1 4RL      -0.731000
     35 N2          -2.1110     1.3840    -0.1220 n          1 4RL      -0.384800
     36 C11         -3.5790     1.3320    -0.3260 c3         1 4RL       0.138300
     37 C12         -5.6980     4.3570     1.9610 ca         1 4RL      -0.113000
     38 H1          -2.2700     0.5790     1.8320 h1         1 4RL       0.088700
     39 H2           0.3840     3.5080    -0.6850 h1         1 4RL       0.090700
     40 H3           2.5290    -0.2540    -0.4940 hn         1 4RL       0.342500
     41 H4          -4.1450    -2.8150    -1.0210 h1         1 4RL       0.068700
     42 H5          -2.9540    -3.4820    -3.7150 hc         1 4RL       0.033200
     43 H6          -2.3240    -4.1790    -2.1420 hc         1 4RL       0.033200
     44 H8          -4.1900     3.9100    -1.0720 ha         1 4RL       0.118000
     45 H9          -4.6380     1.1190     2.2040 ha         1 4RL       0.118000
     46 H10         -5.8440     2.8530     3.5100 ha         1 4RL       0.108000
     47 H11          5.7160     0.5040     1.7100 hc         1 4RL       0.037700
     48 H12          2.7310    -0.0640     2.1070 hc         1 4RL       0.049200
     49 H13          3.9830    -1.2920     2.0020 hc         1 4RL       0.049200
     50 H14          4.7300     2.4200     2.8100 hc         1 4RL       0.040367
     51 H15          5.0090     2.8420     1.1180 hc         1 4RL       0.040367
     52 H16          3.3670     2.4550     1.6750 hc         1 4RL       0.040367
     53 H17          5.0970    -0.3070     4.0610 hc         1 4RL       0.031700
     54 H18          3.7240     0.8160     4.2170 hc         1 4RL       0.031700
     55 H19          3.4590    -0.9300     4.3510 hc         1 4RL       0.031700
     56 H20          6.1900    -3.0540    -2.3390 hc         1 4RL       0.044033
     57 H21          7.4910    -1.8990    -2.6860 hc         1 4RL       0.044033
     58 H22          7.8770    -3.5730    -2.2450 hc         1 4RL       0.044033
     59 H23          7.4340    -4.3640     0.2520 hc         1 4RL       0.044033
     60 H24          6.7620    -3.1960     1.4060 hc         1 4RL       0.044033
     61 H25          5.7590    -3.8230     0.0830 hc         1 4RL       0.044033
     62 H26          9.0850    -1.1510    -0.7930 hc         1 4RL       0.044033
     63 H27          8.7880    -1.6820     0.8750 hc         1 4RL       0.044033
     64 H28          9.3750    -2.8400    -0.3330 hc         1 4RL       0.044033
     65 H29          6.9330    -0.3160     0.0520 hn         1 4RL       0.309500
     66 H30          5.1490     1.1490    -0.6320 h1         1 4RL       0.085700
     67 H31          0.7810     0.5440    -1.3990 hc         1 4RL       0.098200
     68 H32          0.9750     1.9490    -2.4700 hc         1 4RL       0.098200
     69 H33          1.1950     2.6120     1.3800 hn         1 4RL       0.331500
     70 H34         -0.2570    -0.8870     0.0610 h1         1 4RL       0.059700
     71 H35         -0.9320    -1.4070     1.6070 h1         1 4RL       0.059700
     72 H36         -2.9270    -2.0910     0.5240 hn         1 4RL       0.320500
     73 H37         -4.0400    -1.3260    -3.5640 hn         1 4RL       0.413000
     74 H38         -5.2130    -2.3640    -3.1970 hn         1 4RL       0.413000
     75 H41         -3.9540     0.3440    -0.0320 h1         1 4RL       0.085200
     76 H42         -3.8110     1.4430    -1.3940 h1         1 4RL       0.085200
     77 H43         -6.2270     5.1150     2.5350 ha         1 4RL       0.105000
     78 C7           2.5650     1.7060    -1.0740 c          1 4RL       0.609100
     79 O6           4.3640    -1.8710    -0.9200 o          1 4RL      -0.600100
     80 O3           3.2080     2.7280    -1.2620 o          1 4RL      -0.638100
     81 C25          7.2530    -2.3320    -0.5490 c3         1 4RL       0.139400
     82 H7          -5.3980     5.6380     0.2430 ha         1 4RL       0.108000
@<TRIPOS>BOND
     1     1     4 1   
     2     1    25 2   
     3     1    35 1   
     4     2     3 1   
     5     2    26 1   
     6     2    27 2   
     7     3    28 1   
     8     3    35 1   
     9     3    38 1   
    10     4    24 1   
    11     4    26 1   
    12     4    39 1   
    13     5    23 1   
    14     5    40 1   
    15     5    78 1   
    16     6     7 1   
    17     6     8 1   
    18     6    31 1   
    19     6    41 1   
    20     7    29 1   
    21     7    30 2   
    22     8    32 1   
    23     8    42 1   
    24     8    43 1   
    25     9    10 ar  
    26     9    37 ar  
    27     9    82 1   
    28    10    11 ar  
    29    10    44 1   
    30    11    12 ar  
    31    11    36 1   
    32    12    13 ar  
    33    12    45 1   
    34    13    37 ar  
    35    13    46 1   
    36    14    22 1   
    37    14    23 1   
    38    14    79 2   
    39    15    16 1   
    40    15    17 1   
    41    15    23 1   
    42    15    47 1   
    43    16    18 1   
    44    16    48 1   
    45    16    49 1   
    46    17    50 1   
    47    17    51 1   
    48    17    52 1   
    49    18    53 1   
    50    18    54 1   
    51    18    55 1   
    52    19    56 1   
    53    19    57 1   
    54    19    58 1   
    55    19    81 1   
    56    20    59 1   
    57    20    60 1   
    58    20    61 1   
    59    20    81 1   
    60    21    62 1   
    61    21    63 1   
    62    21    64 1   
    63    21    81 1   
    64    22    65 1   
    65    22    81 1   
    66    23    66 1   
    67    24    67 1   
    68    24    68 1   
    69    24    78 1   
    70    26    69 1   
    71    28    29 1   
    72    28    70 1   
    73    28    71 1   
    74    29    72 1   
    75    31    73 1   
    76    31    74 1   
    77    32    33 1   
    78    32    34 1   
    79    35    36 1   
    80    36    75 1   
    81    36    76 1   
    82    37    77 1   
    83    78    80 2   
@<TRIPOS>SUBSTRUCTURE
     1 4RL         1 TEMP              0 ****  ****    0 ROOT
