@<TRIPOS>MOLECULE
4RM
   47    49     1     0     0
SMALL
bcc


@<TRIPOS>ATOM
      1 O01         -2.3990    -3.0110     0.7930 o          1 4RM      -0.582500
      2 C02         -1.6090    -2.1040     0.6710 c          1 4RM       0.722700
      3 N03         -0.2500    -2.2550     0.7280 n          1 4RM      -0.392300
      4 C04          0.3620    -3.5660     0.8820 c3         1 4RM       0.110000
      5 C05          0.4440    -4.3170    -0.4310 c3         1 4RM       0.113400
      6 O06          1.1940    -3.5670    -1.3440 os         1 4RM      -0.396600
      7 C07          1.2310    -4.1490    -2.6220 c3         1 4RM       0.121700
      8 C08          0.5100    -1.1170     0.5790 cc         1 4RM       0.550800
      9 S09         -0.5280     0.3010     0.3110 ss         1 4RM      -0.205800
     10 C10         -1.9660    -0.6800     0.4390 cc         1 4RM      -0.099600
     11 C11         -3.2440    -0.3080     0.2990 cf         1 4RM      -0.015200
     12 C12         -3.7790     1.0190     0.0310 ca         1 4RM      -0.034800
     13 C13         -5.0430     1.1210    -0.5540 ca         1 4RM      -0.225800
     14 C14         -5.5580     2.3710    -0.8470 ca         1 4RM       0.398700
     15 N15         -4.9190     3.5060    -0.5840 nb         1 4RM      -0.654000
     16 C16         -3.7290     3.4150    -0.0020 ca         1 4RM       0.398700
     17 C17         -3.1190     2.2140     0.3220 ca         1 4RM      -0.225800
     18 N18          1.7620    -1.0980     0.6810 nf         1 4RM      -0.596100
     19 C19          2.4760     0.0870     0.4800 ca         1 4RM       0.143400
     20 C20          3.2600     0.5960     1.5140 ca         1 4RM      -0.129000
     21 C21          3.9940     1.7560     1.3260 ca         1 4RM      -0.117000
     22 C22          3.9850     2.4320     0.1070 ca         1 4RM      -0.081300
     23 C23          4.8310     3.6560    -0.1040 c3         1 4RM      -0.031100
     24 C24          6.2330     3.3030    -0.6000 c3         1 4RM      -0.087100
     25 C25          3.2150     1.9020    -0.9250 ca         1 4RM      -0.117000
     26 C26          2.4680     0.7460    -0.7490 ca         1 4RM      -0.129000
     27 H1           1.3520    -3.4220     1.3100 h1         1 4RM       0.080200
     28 H2          -0.2280    -4.1430     1.5930 h1         1 4RM       0.080200
     29 H3           0.9030    -5.2960    -0.2320 h1         1 4RM       0.033700
     30 H4          -0.5660    -4.5140    -0.8170 h1         1 4RM       0.033700
     31 H5           1.7010    -5.1400    -2.6110 h1         1 4RM       0.029367
     32 H6           0.2280    -4.2590    -3.0520 h1         1 4RM       0.029367
     33 H7           1.8150    -3.4980    -3.2710 h1         1 4RM       0.029367
     34 H8          -3.9770    -1.1060     0.3540 ha         1 4RM       0.156000
     35 H10         -5.6160     0.2330    -0.7870 ha         1 4RM       0.148500
     36 H11         -6.5320     2.4580    -1.3140 h4         1 4RM       0.022600
     37 H12         -3.2260     4.3480     0.2250 h4         1 4RM       0.022600
     38 H13         -2.1650     2.2410     0.8310 ha         1 4RM       0.148500
     39 H14          3.2800     0.0850     2.4680 ha         1 4RM       0.142500
     40 H15          4.5880     2.1430     2.1460 ha         1 4RM       0.132000
     41 H16          4.3460     4.3200    -0.8230 hc         1 4RM       0.045700
     42 H17          4.9070     4.2140     0.8320 hc         1 4RM       0.045700
     43 H18          6.8330     4.2010    -0.7510 hc         1 4RM       0.035700
     44 H19          6.7530     2.6680     0.1180 hc         1 4RM       0.035700
     45 H20          6.1890     2.7670    -1.5490 hc         1 4RM       0.035700
     46 H21          3.1970     2.3980    -1.8890 ha         1 4RM       0.132000
     47 H22          1.8960     0.3440    -1.5760 ha         1 4RM       0.142500
@<TRIPOS>BOND
     1     1     2 2   
     2     2     3 1   
     3     2    10 1   
     4     3     4 1   
     5     3     8 1   
     6     4     5 1   
     7     4    27 1   
     8     4    28 1   
     9     5     6 1   
    10     5    29 1   
    11     5    30 1   
    12     6     7 1   
    13     7    31 1   
    14     7    32 1   
    15     7    33 1   
    16     8     9 1   
    17     8    18 2   
    18     9    10 1   
    19    10    11 2   
    20    11    12 1   
    21    11    34 1   
    22    12    13 ar  
    23    12    17 ar  
    24    13    14 ar  
    25    13    35 1   
    26    14    15 ar  
    27    14    36 1   
    28    15    16 ar  
    29    16    17 ar  
    30    16    37 1   
    31    17    38 1   
    32    18    19 1   
    33    19    20 ar  
    34    19    26 ar  
    35    20    21 ar  
    36    20    39 1   
    37    21    22 ar  
    38    21    40 1   
    39    22    23 1   
    40    22    25 ar  
    41    23    24 1   
    42    23    41 1   
    43    23    42 1   
    44    24    43 1   
    45    24    44 1   
    46    24    45 1   
    47    25    26 ar  
    48    25    46 1   
    49    26    47 1   
@<TRIPOS>SUBSTRUCTURE
     1 4RM         1 TEMP              0 ****  ****    0 ROOT
