@<TRIPOS>MOLECULE
4RM
   47    49     1     0     0
SMALL
No Charge or Current Charge


@<TRIPOS>ATOM
      1 O01         -2.5300    -3.0260     0.6250 o          1 4RM      -0.507000
      2 C02         -1.7120    -2.1190     0.5390 c          1 4RM       0.580200
      3 N03         -0.3370    -2.2980     0.5800 n          1 4RM      -0.325300
      4 C04          0.2460    -3.6510     0.7540 c3         1 4RM       0.110000
      5 C05          0.4480    -4.4190    -0.5730 c3         1 4RM       0.136600
      6 O06          1.3080    -3.6520    -1.4360 os         1 4RM      -0.443000
      7 C07          1.5630    -4.2550    -2.7150 c3         1 4RM       0.144900
      8 C08          0.4190    -1.1500     0.4900 cc         1 4RM       0.550800
      9 S09         -0.5530     0.3070     0.2860 ss         1 4RM      -0.205800
     10 C10         -2.0100    -0.6810     0.3690 cc         1 4RM      -0.099600
     11 C11         -3.3000    -0.2070     0.2900 cf         1 4RM      -0.065200
     12 C12         -3.9390     1.1220     0.1260 ca         1 4RM      -0.034800
     13 C13         -5.3460     1.2070     0.0900 ca         1 4RM      -0.142500
     14 C14         -5.9720     2.4560    -0.0640 ca         1 4RM       0.333400
     15 N15         -5.2850     3.6140    -0.1840 nb         1 4RM      -0.654000
     16 C16         -3.9350     3.5430    -0.1510 ca         1 4RM       0.333400
     17 C17         -3.2310     2.3350     0.0000 ca         1 4RM      -0.142500
     18 N18          1.7080    -1.0380     0.5800 nf         1 4RM      -0.596100
     19 C19          2.5090     0.1040     0.3630 ca         1 4RM       0.143400
     20 C20          2.8410     0.9490     1.4350 ca         1 4RM      -0.111000
     21 C21          3.6340     2.0890     1.2170 ca         1 4RM      -0.099000
     22 C22          4.1020     2.3900    -0.0780 ca         1 4RM      -0.081300
     23 C23          4.9650     3.6220    -0.3150 c3         1 4RM      -0.031100
     24 C24          6.4660     3.3190    -0.1540 c3         1 4RM      -0.087100
     25 C25          3.7710     1.5370    -1.1490 ca         1 4RM      -0.099000
     26 C26          2.9780     0.3980    -0.9280 ca         1 4RM      -0.111000
     27 H1           1.2160    -3.5660     1.2600 h1         1 4RM       0.080200
     28 H2          -0.4020    -4.2450     1.4110 h1         1 4RM       0.080200
     29 H3           0.8910    -5.4000    -0.3570 h1         1 4RM       0.033700
     30 H4          -0.5290    -4.5810    -1.0470 h1         1 4RM       0.033700
     31 H5           2.0500    -5.2310    -2.5950 h1         1 4RM       0.029367
     32 H6           0.6280    -4.3970    -3.2720 h1         1 4RM       0.029367
     33 H7           2.2240    -3.6140    -3.3120 h1         1 4RM       0.029367
     34 H8          -4.0380    -1.0080     0.3670 ha         1 4RM       0.206000
     35 H10         -5.9630     0.3170     0.1800 ha         1 4RM       0.130500
     36 H11         -7.0580     2.5310    -0.0930 h4         1 4RM       0.022600
     37 H12         -3.3990     4.4860    -0.2480 h4         1 4RM       0.022600
     38 H13         -2.1510     2.3770     0.0160 ha         1 4RM       0.130500
     39 H14          2.4820     0.7220     2.4360 ha         1 4RM       0.124500
     40 H15          3.8870     2.7360     2.0530 ha         1 4RM       0.114000
     41 H16          4.7880     4.0210    -1.3210 hc         1 4RM       0.045700
     42 H17          4.6860     4.4210     0.3840 hc         1 4RM       0.045700
     43 H18          7.0600     4.2230    -0.3300 hc         1 4RM       0.035700
     44 H19          6.6810     2.9580     0.8590 hc         1 4RM       0.035700
     45 H20          6.7840     2.5520    -0.8700 hc         1 4RM       0.035700
     46 H21          4.1300     1.7560    -2.1520 ha         1 4RM       0.114000
     47 H22          2.7250    -0.2570    -1.7580 ha         1 4RM       0.124500
@<TRIPOS>BOND
     1     1     2 2   
     2     2     3 1   
     3     2    10 1   
     4     3     4 1   
     5     3     8 1   
     6     4     5 1   
     7     4    27 1   
     8     4    28 1   
     9     5     6 1   
    10     5    29 1   
    11     5    30 1   
    12     6     7 1   
    13     7    31 1   
    14     7    32 1   
    15     7    33 1   
    16     8     9 1   
    17     8    18 2   
    18     9    10 1   
    19    10    11 2   
    20    11    12 1   
    21    11    34 1   
    22    12    13 ar  
    23    12    17 ar  
    24    13    14 ar  
    25    13    35 1   
    26    14    15 ar  
    27    14    36 1   
    28    15    16 ar  
    29    16    17 ar  
    30    16    37 1   
    31    17    38 1   
    32    18    19 1   
    33    19    20 ar  
    34    19    26 ar  
    35    20    21 ar  
    36    20    39 1   
    37    21    22 ar  
    38    21    40 1   
    39    22    23 1   
    40    22    25 ar  
    41    23    24 1   
    42    23    41 1   
    43    23    42 1   
    44    24    43 1   
    45    24    44 1   
    46    24    45 1   
    47    25    26 ar  
    48    25    46 1   
    49    26    47 1   
@<TRIPOS>SUBSTRUCTURE
     1 4RM         1 TEMP              0 ****  ****    0 ROOT
