@<TRIPOS>MOLECULE
4RN
   43    45     1     0     0
SMALL
bcc


@<TRIPOS>ATOM
      1 C1          -0.9070    -0.0130     0.2340 c3         1 4RN      -0.074700
      2 C2           0.1410    -0.1590    -0.8660 c3         1 4RN       0.165800
      3 C3           2.4990    -0.2160    -1.3650 c3         1 4RN       0.205100
      4 C4           3.8900    -0.1280    -0.7930 ca         1 4RN      -0.073300
      5 C5           4.9330    -0.8240    -1.3940 ca         1 4RN      -0.111500
      6 C6           6.2160    -0.7100    -0.8840 ca         1 4RN       0.032400
      7 C7           6.4960     0.0770     0.2210 ca         1 4RN      -0.114000
      8 N1          -3.2850     0.4470     0.5740 nu         1 4RN      -0.846200
      9 N2          -5.1460    -0.2280    -0.7320 na         1 4RN      -0.301300
     10 N3          -7.9090     0.8440     1.0920 nb         1 4RN      -0.625000
     11 N4          -5.5150     0.8650     1.1870 nc         1 4RN      -0.717700
     12 C8           5.4400     0.7570     0.8070 ca         1 4RN       0.032400
     13 CL1          5.7540     1.7480     2.1930 cl         1 4RN      -0.100900
     14 CL           7.5080    -1.5810    -1.6390 cl         1 4RN      -0.100900
     15 C9           4.1470     0.6670     0.3200 ca         1 4RN      -0.111500
     16 N            1.4880    -0.1740    -0.3320 n7         1 4RN      -0.809200
     17 C           -0.8560    -1.1580     1.2420 c3         1 4RN      -0.093100
     18 C10         -2.2850     0.1000    -0.4120 c3         1 4RN       0.229800
     19 C11         -4.6070     0.3810     0.3630 cd         1 4RN       0.675700
     20 C16         -6.7120     0.5540     0.6090 ca         1 4RN       0.577300
     21 C12         -6.5110    -0.1380    -0.6060 ca         1 4RN      -0.206500
     22 C15         -8.9450     0.4420     0.3550 ca         1 4RN       0.396200
     23 C14         -8.8380    -0.2410    -0.8510 ca         1 4RN      -0.257300
     24 C13         -7.5790    -0.5530    -1.3660 ca         1 4RN      -0.086000
     25 H1          -0.7000     0.9290     0.7550 hc         1 4RN       0.068700
     26 H2          -0.0850    -1.0560    -1.4680 h1         1 4RN       0.030200
     27 H3           0.0600     0.6940    -1.5460 h1         1 4RN       0.030200
     28 H4           2.3430     0.6420    -2.0290 h1         1 4RN       0.041700
     29 H5           2.4310    -1.1070    -2.0080 h1         1 4RN       0.041700
     30 H6           4.7430    -1.4530    -2.2530 ha         1 4RN       0.158000
     31 H7           7.5000     0.1540     0.6150 ha         1 4RN       0.164000
     32 H8          -3.0060     1.0610     1.3230 hn         1 4RN       0.460800
     33 H9          -4.6460    -0.6600    -1.4920 hn         1 4RN       0.304700
     34 H11          3.3390     1.2030     0.7980 ha         1 4RN       0.158000
     35 H12          1.6050    -0.9820     0.2680 hn         1 4RN       0.362800
     36 H14         -0.9450    -2.1240     0.7390 hc         1 4RN       0.043033
     37 H15          0.0760    -1.1570     1.8070 hc         1 4RN       0.043033
     38 H16         -1.6670    -1.0840     1.9660 hc         1 4RN       0.043033
     39 H17         -2.2570     0.8420    -1.2200 h1         1 4RN       0.036200
     40 H18         -2.5450    -0.8610    -0.8640 h1         1 4RN       0.036200
     41 H19         -9.9280     0.6760     0.7480 h4         1 4RN       0.019100
     42 H20         -9.7340    -0.5260    -1.3840 ha         1 4RN       0.139000
     43 H21         -7.4600    -1.0860    -2.3000 ha         1 4RN       0.135000
@<TRIPOS>BOND
     1     1     2 1   
     2     1    17 1   
     3     1    18 1   
     4     1    25 1   
     5     2    16 1   
     6     2    26 1   
     7     2    27 1   
     8     3     4 1   
     9     3    16 1   
    10     3    28 1   
    11     3    29 1   
    12     4     5 ar  
    13     4    15 ar  
    14     5     6 ar  
    15     5    30 1   
    16     6     7 ar  
    17     6    14 1   
    18     7    12 ar  
    19     7    31 1   
    20     8    18 1   
    21     8    19 1   
    22     8    32 1   
    23     9    19 1   
    24     9    21 1   
    25     9    33 1   
    26    10    20 ar  
    27    10    22 ar  
    28    11    19 2   
    29    11    20 1   
    30    12    13 1   
    31    12    15 ar  
    32    15    34 1   
    33    16    35 1   
    34    17    36 1   
    35    17    37 1   
    36    17    38 1   
    37    18    39 1   
    38    18    40 1   
    39    20    21 ar  
    40    21    24 ar  
    41    22    23 ar  
    42    22    41 1   
    43    23    24 ar  
    44    23    42 1   
    45    24    43 1   
@<TRIPOS>SUBSTRUCTURE
     1 4RN         1 TEMP              0 ****  ****    0 ROOT
