@<TRIPOS>MOLECULE
4RN
   43    45     1     0     0
SMALL
No Charge or Current Charge


@<TRIPOS>ATOM
      1 C1          -0.8970    -0.2230     0.0580 c3         1 4RN      -0.074700
      2 C2           0.1700    -0.1230    -1.0610 c3         1 4RN       0.165800
      3 C3           2.6160     0.0490    -1.4900 c3         1 4RN       0.205100
      4 C4           3.9670     0.0830    -0.7910 ca         1 4RN      -0.073300
      5 C5           4.7730    -1.0720    -0.7310 ca         1 4RN      -0.093500
      6 C6           6.0190    -1.0340    -0.0830 ca         1 4RN       0.124000
      7 C7           6.4710     0.1560     0.5110 ca         1 4RN      -0.096000
      8 N1          -3.3340     0.1080     0.4890 nu         1 4RN      -0.901400
      9 N2          -5.2990     0.0210    -0.8960 na         1 4RN      -0.351600
     10 N3          -7.8750     0.2350     1.4850 nb         1 4RN      -0.625000
     11 N4          -5.4390     0.2010     1.4000 nc         1 4RN      -0.717700
     12 C8           5.6720     1.3080     0.4550 ca         1 4RN       0.124000
     13 Cl1          6.2320     2.8000     1.2000 cl         1 4RN      -0.192500
     14 Cl           7.0160    -2.4810    -0.0140 cl         1 4RN      -0.192500
     15 C9           4.4250     1.2740    -0.1920 ca         1 4RN      -0.093500
     16 N            1.5320    -0.0530    -0.4980 n7         1 4RN      -0.864400
     17 C           -0.7540    -1.5300     0.8880 c3         1 4RN      -0.093100
     18 C10         -2.3130    -0.0730    -0.5500 c3         1 4RN       0.229800
     19 C11         -4.6650     0.1080     0.3290 cd         1 4RN       0.675700
     20 C16         -6.7000     0.1710     0.8380 ca         1 4RN       0.512000
     21 C12         -6.6160     0.0640    -0.5340 ca         1 4RN      -0.141200
     22 C15         -9.0000     0.1890     0.7270 ca         1 4RN       0.330900
     23 C14         -8.9840     0.0800    -0.6810 ca         1 4RN      -0.174000
     24 C13         -7.7500     0.0140    -1.3500 ca         1 4RN      -0.068000
     25 H1          -0.7370     0.6280     0.7320 hc         1 4RN       0.068700
     26 H2           0.0740    -0.9910    -1.7280 h1         1 4RN       0.030200
     27 H3          -0.0260     0.7770    -1.6600 h1         1 4RN       0.030200
     28 H4           2.5010     0.9610    -2.0920 h1         1 4RN       0.041700
     29 H5           2.5870    -0.8050    -2.1810 h1         1 4RN       0.041700
     30 H6           4.4340    -2.0010    -1.1850 ha         1 4RN       0.140000
     31 H7           7.4340     0.1830     1.0120 ha         1 4RN       0.146000
     32 H8          -3.0530     0.1480     1.4640 hn         1 4RN       0.516000
     33 H9          -4.8720    -0.0480    -1.8080 hn         1 4RN       0.355000
     34 H11          3.8120     2.1710    -0.2260 ha         1 4RN       0.140000
     35 H12          1.6920    -0.9030     0.0540 hn         1 4RN       0.418000
     36 H14         -0.8770    -2.4120     0.2470 hc         1 4RN       0.043033
     37 H15          0.2290    -1.5910     1.3690 hc         1 4RN       0.043033
     38 H16         -1.5080    -1.5800     1.6820 hc         1 4RN       0.043033
     39 H17         -2.3270     0.8000    -1.2170 h1         1 4RN       0.036200
     40 H18         -2.5440    -0.9600    -1.1560 h1         1 4RN       0.036200
     41 H19         -9.9460     0.2410     1.2650 h4         1 4RN       0.019100
     42 H20         -9.9180     0.0470    -1.2350 ha         1 4RN       0.121000
     43 H21         -7.6830    -0.0710    -2.4330 ha         1 4RN       0.117000
@<TRIPOS>BOND
     1     1     2 1   
     2     1    17 1   
     3     1    18 1   
     4     1    25 1   
     5     2    16 1   
     6     2    26 1   
     7     2    27 1   
     8     3     4 1   
     9     3    16 1   
    10     3    28 1   
    11     3    29 1   
    12     4     5 ar  
    13     4    15 ar  
    14     5     6 ar  
    15     5    30 1   
    16     6     7 ar  
    17     6    14 1   
    18     7    12 ar  
    19     7    31 1   
    20     8    18 1   
    21     8    19 1   
    22     8    32 1   
    23     9    19 1   
    24     9    21 1   
    25     9    33 1   
    26    10    20 ar  
    27    10    22 ar  
    28    11    19 2   
    29    11    20 1   
    30    12    13 1   
    31    12    15 ar  
    32    15    34 1   
    33    16    35 1   
    34    17    36 1   
    35    17    37 1   
    36    17    38 1   
    37    18    39 1   
    38    18    40 1   
    39    20    21 ar  
    40    21    24 ar  
    41    22    23 ar  
    42    22    41 1   
    43    23    24 ar  
    44    23    42 1   
    45    24    43 1   
@<TRIPOS>SUBSTRUCTURE
     1 4RN         1 TEMP              0 ****  ****    0 ROOT
