@<TRIPOS>MOLECULE
4RO
   40    42     1     0     0
SMALL
abcg2


@<TRIPOS>ATOM
      1 C4          -4.4870     1.2930    -1.0420 ca         1 4RO      -0.090000
      2 C2          -2.4020    -0.0080    -1.5650 c3         1 4RO       0.213100
      3 C3          -3.5190     0.3850    -0.6340 ca         1 4RO      -0.077300
      4 C1          -0.0790    -0.6820    -1.6300 c3         1 4RO       0.118800
      5 C7          -4.6520     0.1540     1.4640 ca         1 4RO       0.122500
      6 C8          -3.6000    -0.1840     0.6340 ca         1 4RO      -0.090000
      7 C11          6.3060    -0.6310     0.3950 ca         1 4RO       0.509000
      8 C15          5.7090     0.5090    -0.1880 ca         1 4RO      -0.137200
      9 C14          6.3540     1.7230    -0.1840 ca         1 4RO      -0.067000
     10 C12          8.1240     0.5580     0.9680 ca         1 4RO       0.329900
     11 CL1         -4.7550    -0.5600     3.0380 cl         1 4RO      -0.190500
     12 C6          -5.6330     1.0560     1.0760 ca         1 4RO      -0.093000
     13 C5          -5.5290     1.6140    -0.1860 ca         1 4RO       0.122500
     14 CL          -6.7270     2.7530    -0.7000 cl         1 4RO      -0.190500
     15 N           -1.1400    -0.0820    -0.8610 n7         1 4RO      -0.861400
     16 C            1.0960    -1.0430    -0.7460 c3         1 4RO       0.161000
     17 F            1.5300     0.0760    -0.0770 f          1 4RO      -0.110000
     18 F1           0.7050    -1.9100     0.2280 f          1 4RO      -0.110000
     19 C9           2.2680    -1.6450    -1.5040 c3         1 4RO       0.185800
     20 N1           3.3540    -2.0250    -0.6480 nu         1 4RO      -0.904400
     21 C10          4.4180    -1.2600    -0.3420 cc         1 4RO       0.679700
     22 N4           4.4980     0.0640    -0.6600 na         1 4RO      -0.344600
     23 N2           5.4810    -1.7140     0.2780 nd         1 4RO      -0.710700
     24 C13          7.6090     1.7300     0.4220 ca         1 4RO      -0.171000
     25 N3           7.4980    -0.6180     0.9650 nb         1 4RO      -0.622000
     26 H1          -4.4270     1.7510    -2.0210 ha         1 4RO       0.141000
     27 H2          -2.6240    -1.0010    -1.9680 h1         1 4RO       0.042200
     28 H3          -2.3890     0.6740    -2.4260 h1         1 4RO       0.042200
     29 H4          -0.4480    -1.6070    -2.0810 h1         1 4RO       0.049700
     30 H5           0.2850    -0.0600    -2.4610 h1         1 4RO       0.049700
     31 H6          -2.8380    -0.8790     0.9610 ha         1 4RO       0.141000
     32 H8           9.1010     0.5770     1.4370 h4         1 4RO       0.019100
     33 H9          -6.4450     1.3170     1.7400 ha         1 4RO       0.146000
     34 H10         -0.8720     0.8470    -0.5620 hn         1 4RO       0.432000
     35 H12          1.9200    -2.5350    -2.0300 h1         1 4RO       0.066700
     36 H13          2.6000    -0.9510    -2.2810 h1         1 4RO       0.066700
     37 H14          3.4370    -2.9940    -0.3920 hn         1 4RO       0.530000
     38 H15          3.7670     0.6410    -1.0400 hn         1 4RO       0.359000
     39 H17          8.1870     2.6420     0.4760 ha         1 4RO       0.122000
     40 H7           5.9250     2.6170    -0.6180 ha         1 4RO       0.119000
@<TRIPOS>BOND
     1     1     3 ar  
     2     1    13 ar  
     3     1    26 1   
     4     2     3 1   
     5     2    15 1   
     6     2    27 1   
     7     2    28 1   
     8     3     6 ar  
     9     4    15 1   
    10     4    16 1   
    11     4    29 1   
    12     4    30 1   
    13     5     6 ar  
    14     5    11 1   
    15     5    12 ar  
    16     6    31 1   
    17     7     8 ar  
    18     7    23 1   
    19     7    25 ar  
    20     8     9 ar  
    21     8    22 1   
    22     9    24 ar  
    23     9    40 1   
    24    10    24 ar  
    25    10    25 ar  
    26    10    32 1   
    27    12    13 ar  
    28    12    33 1   
    29    13    14 1   
    30    15    34 1   
    31    16    17 1   
    32    16    18 1   
    33    16    19 1   
    34    19    20 1   
    35    19    35 1   
    36    19    36 1   
    37    20    21 1   
    38    20    37 1   
    39    21    22 1   
    40    21    23 2   
    41    22    38 1   
    42    24    39 1   
@<TRIPOS>SUBSTRUCTURE
     1 4RO         1 TEMP              0 ****  ****    0 ROOT
