@<TRIPOS>MOLECULE
4RO
   40    42     1     0     0
SMALL
No Charge or Current Charge


@<TRIPOS>ATOM
      1 C4          -3.8760     1.6660    -0.6090 ca         1 4RO      -0.090000
      2 C2          -2.4940    -0.2810    -1.4960 c3         1 4RO       0.213100
      3 C3          -3.5680     0.2900    -0.5810 ca         1 4RO      -0.077300
      4 C1          -0.1250    -1.0800    -1.5280 c3         1 4RO       0.118800
      5 C7          -5.2530    -0.0290     1.1550 ca         1 4RO       0.122500
      6 C8          -4.2630    -0.5540     0.3080 ca         1 4RO      -0.090000
      7 C11          6.2730    -0.3810     0.4670 ca         1 4RO       0.509000
      8 C15          5.7470     0.5860    -0.3620 ca         1 4RO      -0.137200
      9 C14          6.3240     1.8500    -0.5050 ca         1 4RO      -0.067000
     10 C12          7.9730     1.0360     1.0900 ca         1 4RO       0.329900
     11 Cl1         -6.1140    -1.0930     2.2610 cl         1 4RO      -0.190500
     12 C6          -5.5580     1.3400     1.1230 ca         1 4RO      -0.093000
     13 C5          -4.8680     2.1860     0.2400 ca         1 4RO       0.122500
     14 Cl          -5.2450     3.9030     0.1970 cl         1 4RO      -0.190500
     15 N           -1.2570    -0.5300    -0.7370 n7         1 4RO      -0.861400
     16 C            1.1640    -1.2890    -0.6800 c3         1 4RO       0.161000
     17 F            1.5310    -0.1080    -0.1230 f          1 4RO      -0.110000
     18 F1           0.9030    -2.1430     0.3420 f          1 4RO      -0.110000
     19 C9           2.3370    -1.8510    -1.5380 c3         1 4RO       0.185800
     20 N1           3.5740    -2.1060    -0.7600 nu         1 4RO      -0.904400
     21 C10          4.5380    -1.2200    -0.4400 cc         1 4RO       0.679700
     22 N4           4.6400     0.0540    -0.9460 na         1 4RO      -0.344600
     23 N2           5.5020    -1.5350     0.4150 nd         1 4RO      -0.710700
     24 C13          7.4840     2.0710     0.2590 ca         1 4RO      -0.171000
     25 N3           7.3800    -0.1810     1.1990 nb         1 4RO      -0.622000
     26 H1          -3.3480     2.3330    -1.2870 ha         1 4RO       0.141000
     27 H2          -2.8660    -1.2140    -1.9420 h1         1 4RO       0.042200
     28 H3          -2.3070     0.4220    -2.3200 h1         1 4RO       0.042200
     29 H4          -0.4100    -2.0450    -1.9710 h1         1 4RO       0.049700
     30 H5           0.1170    -0.4040    -2.3600 h1         1 4RO       0.049700
     31 H6          -4.0310    -1.6160     0.3440 ha         1 4RO       0.141000
     32 H8           8.8710     1.1890     1.6890 h4         1 4RO       0.019100
     33 H9          -6.3240     1.7440     1.7780 ha         1 4RO       0.146000
     34 H10         -0.9590     0.3610    -0.3190 hn         1 4RO       0.432000
     35 H12          2.0030    -2.7880    -2.0060 h1         1 4RO       0.066700
     36 H13          2.5430    -1.1500    -2.3590 h1         1 4RO       0.066700
     37 H14          3.6430    -2.9610    -0.2110 hn         1 4RO       0.530000
     38 H15          4.0120     0.4830    -1.6080 hn         1 4RO       0.359000
     39 H17          8.0040     3.0240     0.2150 ha         1 4RO       0.122000
     40 H7           5.9060     2.6120    -1.1600 ha         1 4RO       0.119000
@<TRIPOS>BOND
     1     1     3 ar  
     2     1    13 ar  
     3     1    26 1   
     4     2     3 1   
     5     2    15 1   
     6     2    27 1   
     7     2    28 1   
     8     3     6 ar  
     9     4    15 1   
    10     4    16 1   
    11     4    29 1   
    12     4    30 1   
    13     5     6 ar  
    14     5    11 1   
    15     5    12 ar  
    16     6    31 1   
    17     7     8 ar  
    18     7    23 1   
    19     7    25 ar  
    20     8     9 ar  
    21     8    22 1   
    22     9    24 ar  
    23     9    40 1   
    24    10    24 ar  
    25    10    25 ar  
    26    10    32 1   
    27    12    13 ar  
    28    12    33 1   
    29    13    14 1   
    30    15    34 1   
    31    16    17 1   
    32    16    18 1   
    33    16    19 1   
    34    19    20 1   
    35    19    35 1   
    36    19    36 1   
    37    20    21 1   
    38    20    37 1   
    39    21    22 1   
    40    21    23 2   
    41    22    38 1   
    42    24    39 1   
@<TRIPOS>SUBSTRUCTURE
     1 4RO         1 TEMP              0 ****  ****    0 ROOT
