@<TRIPOS>MOLECULE
4RP
   40    42     1     0     0
SMALL
bcc


@<TRIPOS>ATOM
      1 C1           6.4500    -0.1110     0.3790 ca         1 4RP      -0.113000
      2 C2           5.3840    -0.8780     0.8230 ca         1 4RP       0.032400
      3 C3           4.1080    -0.7330     0.3060 ca         1 4RP      -0.111500
      4 C4           3.8780     0.2110    -0.6910 ca         1 4RP      -0.073300
      5 C5           2.5090     0.3630    -1.3010 c3         1 4RP       0.206100
      6 C6           0.1320     0.1600    -0.9150 c3         1 4RP       0.165800
      7 C7          -0.9200    -0.1500     0.1370 c3         1 4RP      -0.095400
      8 N1          -3.2940    -0.4560     0.5760 nu         1 4RP      -0.846200
      9 C8          -2.3220    -0.1400    -0.4500 c3         1 4RP       0.228800
     10 C9          -4.6200    -0.3780     0.3930 cc         1 4RP       0.674700
     11 C10         -6.5330     0.1600    -0.5460 ca         1 4RP      -0.206500
     12 C11         -7.6090     0.5820    -1.2900 ca         1 4RP      -0.086000
     13 N2          -5.1700     0.2260    -0.6990 na         1 4RP      -0.301300
     14 C12         -8.8630     0.2970    -0.7470 ca         1 4RP      -0.256300
     15 C13         -8.9570    -0.3690     0.4690 ca         1 4RP       0.396200
     16 C14         -6.7220    -0.5140     0.6820 ca         1 4RP       0.577300
     17 C15          4.9310     0.9950    -1.1470 ca         1 4RP      -0.111500
     18 N3          -7.9130    -0.7780     1.1910 nb         1 4RP      -0.625000
     19 CL1          5.6650    -2.0540     2.0640 cl         1 4RP      -0.101400
     20 C            6.1970     0.8220    -0.6120 ca         1 4RP       0.032400
     21 CL           7.5010     1.8060    -1.1870 cl         1 4RP      -0.101400
     22 N            1.4590     0.1480    -0.3300 n7         1 4RP      -0.810200
     23 N4          -5.5190    -0.8370     1.2400 nd         1 4RP      -0.715700
     24 H1           7.4410    -0.2330     0.7950 ha         1 4RP       0.164000
     25 H2           3.2920    -1.3390     0.6720 ha         1 4RP       0.158000
     26 H3           2.4480     1.3380    -1.8060 h1         1 4RP       0.042200
     27 H4           2.3990    -0.3900    -2.0890 h1         1 4RP       0.042200
     28 H5           0.0990    -0.6030    -1.6990 h1         1 4RP       0.031700
     29 H6          -0.1080     1.1170    -1.4050 h1         1 4RP       0.031700
     30 H7          -0.7090    -1.1310     0.5740 hc         1 4RP       0.061700
     31 H8          -0.8670     0.5830     0.9470 hc         1 4RP       0.061700
     32 H9          -3.0020    -1.0640     1.3250 hn         1 4RP       0.460800
     33 H10         -2.5350     0.8540    -0.8520 h1         1 4RP       0.036200
     34 H11         -2.3820    -0.8480    -1.2850 h1         1 4RP       0.036200
     35 H12         -7.4990     1.1030    -2.2330 ha         1 4RP       0.135000
     36 H13         -4.6780     0.6430    -1.4730 hn         1 4RP       0.304700
     37 H14         -9.7640     0.5910    -1.2660 ha         1 4RP       0.139000
     38 H15         -9.9360    -0.5820     0.8840 h4         1 4RP       0.019100
     39 H16          4.7630     1.7400    -1.9140 ha         1 4RP       0.158000
     40 H17          1.5140     0.8680     0.3810 hn         1 4RP       0.361800
@<TRIPOS>BOND
     1     1     2 ar  
     2     1    20 ar  
     3     1    24 1   
     4     2     3 ar  
     5     2    19 1   
     6     3     4 ar  
     7     3    25 1   
     8     4     5 1   
     9     4    17 ar  
    10     5    22 1   
    11     5    26 1   
    12     5    27 1   
    13     6     7 1   
    14     6    22 1   
    15     6    28 1   
    16     6    29 1   
    17     7     9 1   
    18     7    30 1   
    19     7    31 1   
    20     8     9 1   
    21     8    10 1   
    22     8    32 1   
    23     9    33 1   
    24     9    34 1   
    25    10    13 1   
    26    10    23 2   
    27    11    12 ar  
    28    11    13 1   
    29    11    16 ar  
    30    12    14 ar  
    31    12    35 1   
    32    13    36 1   
    33    14    15 ar  
    34    14    37 1   
    35    15    18 ar  
    36    15    38 1   
    37    16    18 ar  
    38    16    23 1   
    39    17    20 ar  
    40    17    39 1   
    41    20    21 1   
    42    22    40 1   
@<TRIPOS>SUBSTRUCTURE
     1 4RP         1 TEMP              0 ****  ****    0 ROOT
