@<TRIPOS>MOLECULE
4RP
   40    42     1     0     0
SMALL
No Charge or Current Charge


@<TRIPOS>ATOM
      1 C1           6.4380    -0.0570     0.6310 ca         1 4RP      -0.095000
      2 C2           5.6880    -1.2340     0.4850 ca         1 4RP       0.124000
      3 C3           4.4590    -1.2100    -0.1960 ca         1 4RP      -0.093500
      4 C4           3.9710    -0.0040    -0.7400 ca         1 4RP      -0.073300
      5 C5           2.6400     0.0190    -1.4770 c3         1 4RP       0.206100
      6 C6           0.1790     0.0550    -1.1190 c3         1 4RP       0.165800
      7 C7          -0.8960     0.0180    -0.0170 c3         1 4RP      -0.095400
      8 N1          -3.3150     0.0070     0.4870 nu         1 4RP      -0.901400
      9 C8          -2.3230     0.0390    -0.5920 c3         1 4RP       0.228800
     10 C9          -4.6550     0.0010     0.3590 cc         1 4RP       0.674700
     11 C10         -6.6490     0.0500    -0.5070 ca         1 4RP      -0.141200
     12 C11         -7.7830     0.1040    -1.3210 ca         1 4RP      -0.068000
     13 N2          -5.3300     0.0930    -0.8350 na         1 4RP      -0.351600
     14 C12         -9.0130     0.0320    -0.6420 ca         1 4RP      -0.173000
     15 C13         -9.0210    -0.0860     0.7670 ca         1 4RP       0.330900
     16 C14         -6.7240    -0.0660     0.8630 ca         1 4RP       0.512000
     17 C15          4.7280     1.1760    -0.5890 ca         1 4RP      -0.093500
     18 N3          -7.8920    -0.1350     1.5210 nb         1 4RP      -0.625000
     19 Cl1          6.2860    -2.7440     1.1600 cl         1 4RP      -0.193000
     20 C            5.9560     1.1470     0.0930 ca         1 4RP       0.124000
     21 Cl           6.8930     2.6240     0.2750 cl         1 4RP      -0.193000
     22 N            1.5220     0.0170    -0.5170 n7         1 4RP      -0.865400
     23 N4          -5.4500    -0.0970     1.4170 nd         1 4RP      -0.715700
     24 H1           7.3870    -0.0770     1.1590 ha         1 4RP       0.146000
     25 H2           3.8830    -2.1260    -0.3000 ha         1 4RP       0.140000
     26 H3           2.5960     0.9120    -2.1180 h1         1 4RP       0.042200
     27 H4           2.5820    -0.8580    -2.1360 h1         1 4RP       0.042200
     28 H5           0.0360    -0.8060    -1.7870 h1         1 4RP       0.031700
     29 H6           0.0520     0.9680    -1.7170 h1         1 4RP       0.031700
     30 H7          -0.7610    -0.8880     0.5850 hc         1 4RP       0.061700
     31 H8          -0.7620     0.8800     0.6480 hc         1 4RP       0.061700
     32 H9          -3.0060    -0.1050     1.4490 hn         1 4RP       0.516000
     33 H10         -2.4580     0.9480    -1.1940 h1         1 4RP       0.036200
     34 H11         -2.4620    -0.8290    -1.2510 h1         1 4RP       0.036200
     35 H12         -7.7210     0.1960    -2.4040 ha         1 4RP       0.117000
     36 H13         -4.9110     0.1770    -1.7490 hn         1 4RP       0.355000
     37 H14         -9.9510     0.0670    -1.1900 ha         1 4RP       0.121000
     38 H15         -9.9640    -0.1430     1.3090 h4         1 4RP       0.019100
     39 H16          4.3660     2.1150    -1.0000 ha         1 4RP       0.140000
     40 H17          1.6290     0.8400     0.0890 hn         1 4RP       0.417000
@<TRIPOS>BOND
     1     1     2 ar  
     2     1    20 ar  
     3     1    24 1   
     4     2     3 ar  
     5     2    19 1   
     6     3     4 ar  
     7     3    25 1   
     8     4     5 1   
     9     4    17 ar  
    10     5    22 1   
    11     5    26 1   
    12     5    27 1   
    13     6     7 1   
    14     6    22 1   
    15     6    28 1   
    16     6    29 1   
    17     7     9 1   
    18     7    30 1   
    19     7    31 1   
    20     8     9 1   
    21     8    10 1   
    22     8    32 1   
    23     9    33 1   
    24     9    34 1   
    25    10    13 1   
    26    10    23 2   
    27    11    12 ar  
    28    11    13 1   
    29    11    16 ar  
    30    12    14 ar  
    31    12    35 1   
    32    13    36 1   
    33    14    15 ar  
    34    14    37 1   
    35    15    18 ar  
    36    15    38 1   
    37    16    18 ar  
    38    16    23 1   
    39    17    20 ar  
    40    17    39 1   
    41    20    21 1   
    42    22    40 1   
@<TRIPOS>SUBSTRUCTURE
     1 4RP         1 TEMP              0 ****  ****    0 ROOT
