@<TRIPOS>MOLECULE
4RQ
   40    42     1     0     0
SMALL
No Charge or Current Charge


@<TRIPOS>ATOM
      1 N1          -2.8170    -0.0020    -0.4270 nu         1 4RQ      -0.900400
      2 N2           2.0330    -0.0320     0.5120 n7         1 4RQ      -0.865400
      3 C3          -6.1400    -0.0410     0.6060 ca         1 4RQ      -0.168200
      4 C4          -4.1550     0.0070    -0.2820 cc         1 4RQ       0.680700
      5 C5          -1.8110    -0.0390     0.6390 c3         1 4RQ       0.228800
      6 C6          -0.3920    -0.0230     0.0450 c3         1 4RQ      -0.096400
      7 C7           0.6970    -0.0650     1.1330 c3         1 4RQ       0.165800
      8 C10          4.9720     1.1820     0.1550 ca         1 4RQ      -0.094500
      9 C12          6.9330     0.0220    -0.7020 ca         1 4RQ      -0.096000
     10 C15         -6.2290     0.0820    -0.7630 ca         1 4RQ       0.544000
     11 C13          6.4520    -1.1810    -0.1600 ca         1 4RQ       0.124000
     12 C11          6.1900     1.2020    -0.5430 ca         1 4RQ       0.124000
     13 Cl           6.7880     2.7110    -1.2220 cl         1 4RQ      -0.192500
     14 C14          5.2330    -1.2050     0.5390 ca         1 4RQ      -0.094500
     15 C9           4.4840    -0.0220     0.7020 ca         1 4RQ      -0.073300
     16 C8           3.1630    -0.0400     1.4580 c3         1 4RQ       0.206100
     17 N           -4.8160    -0.0890     0.9190 na         1 4RQ      -0.343600
     18 N3          -4.9620     0.1120    -1.3300 nd         1 4RQ      -0.713700
     19 N4          -7.3980     0.1570    -1.4110 nb         1 4RQ      -0.663000
     20 C           -8.5070     0.1060    -0.6390 ca         1 4RQ       0.568200
     21 F           -9.6760     0.1840    -1.3090 f          1 4RQ      -0.231200
     22 C2          -7.2640    -0.0970     1.4340 ca         1 4RQ      -0.038000
     23 C1          -8.4990    -0.0180     0.7660 ca         1 4RQ      -0.210000
     24 H1          -2.5210     0.1160    -1.3930 hn         1 4RQ       0.520000
     25 H2           2.1270    -0.8550    -0.0950 hn         1 4RQ       0.417000
     26 H4          -1.9380     0.8290     1.3000 h1         1 4RQ       0.036700
     27 H5          -1.9420    -0.9480     1.2420 h1         1 4RQ       0.036700
     28 H6          -0.2700    -0.8840    -0.6230 hc         1 4RQ       0.062200
     29 H7          -0.2620     0.8840    -0.5580 hc         1 4RQ       0.062200
     30 H8           0.5750    -0.9790     1.7310 h1         1 4RQ       0.031700
     31 H9           0.5670     0.7960     1.8030 h1         1 4RQ       0.031700
     32 H10          4.4020     2.1020     0.2690 ha         1 4RQ       0.140000
     33 H11          7.8750     0.0380    -1.2420 ha         1 4RQ       0.146000
     34 H12          4.8720    -2.1440     0.9520 ha         1 4RQ       0.140000
     35 H13          3.1180     0.8370     2.1180 h1         1 4RQ       0.042700
     36 H14          3.1240    -0.9330     2.0980 h1         1 4RQ       0.042700
     37 H15         -4.3860    -0.1790     1.8270 hn         1 4RQ       0.358000
     38 H17         -7.1910    -0.1940     2.5160 ha         1 4RQ       0.122000
     39 H18         -9.4350    -0.0520     1.3140 ha         1 4RQ       0.141000
     40 Cl1          7.3780    -2.6630    -0.3580 cl         1 4RQ      -0.192500
@<TRIPOS>BOND
     1     1     4 1   
     2     1     5 1   
     3     1    24 1   
     4     2     7 1   
     5     2    16 1   
     6     2    25 1   
     7     3    10 ar  
     8     3    17 1   
     9     3    22 ar  
    10     4    17 1   
    11     4    18 2   
    12     5     6 1   
    13     5    26 1   
    14     5    27 1   
    15     6     7 1   
    16     6    28 1   
    17     6    29 1   
    18     7    30 1   
    19     7    31 1   
    20     8    12 ar  
    21     8    15 ar  
    22     8    32 1   
    23     9    11 ar  
    24     9    12 ar  
    25     9    33 1   
    26    10    18 1   
    27    10    19 ar  
    28    11    14 ar  
    29    11    40 1   
    30    12    13 1   
    31    14    15 ar  
    32    14    34 1   
    33    15    16 1   
    34    16    35 1   
    35    16    36 1   
    36    17    37 1   
    37    19    20 ar  
    38    20    21 1   
    39    20    23 ar  
    40    22    23 ar  
    41    22    38 1   
    42    23    39 1   
@<TRIPOS>SUBSTRUCTURE
     1 4RQ         1 TEMP              0 ****  ****    0 ROOT
