@<TRIPOS>MOLECULE
4RQ
   40    42     1     0     0
SMALL
abcg2


@<TRIPOS>ATOM
      1 N1          -2.7960     0.4930    -0.4900 nu         1 4RQ      -0.900400
      2 N2           1.9650    -0.1580     0.3250 n7         1 4RQ      -0.865400
      3 C3          -6.0250    -0.1590     0.6380 ca         1 4RQ      -0.168200
      4 C4          -4.1170     0.4000    -0.2980 cc         1 4RQ       0.680700
      5 C5          -1.8090     0.1580     0.5140 c3         1 4RQ       0.228800
      6 C6          -0.4180     0.1670    -0.0960 c3         1 4RQ      -0.096400
      7 C7           0.6490    -0.1710     0.9330 c3         1 4RQ       0.165800
      8 C10          4.6030     0.6710    -0.3790 ca         1 4RQ      -0.094500
      9 C12          6.9520     0.0760    -0.4540 ca         1 4RQ      -0.096000
     10 C15         -6.2160     0.5340    -0.5750 ca         1 4RQ       0.544000
     11 C13          6.7180    -0.8330     0.5640 ca         1 4RQ       0.124000
     12 C11          5.8740     0.8180    -0.9090 ca         1 4RQ       0.124000
     13 CL           6.1310     1.9620    -2.1840 cl         1 4RQ      -0.192500
     14 C14          5.4580    -1.0080     1.1130 ca         1 4RQ      -0.094500
     15 C9           4.3920    -0.2480     0.6440 ca         1 4RQ      -0.073300
     16 C8           3.0300    -0.4030     1.2710 c3         1 4RQ       0.206100
     17 N           -4.6580    -0.2240     0.7840 na         1 4RQ      -0.343600
     18 N3          -5.0270     0.8700    -1.1350 nd         1 4RQ      -0.713700
     19 N4          -7.4190     0.8040    -1.0690 nb         1 4RQ      -0.663000
     20 C           -8.4250     0.3820    -0.3500 ca         1 4RQ       0.568200
     21 F           -9.6390     0.6620    -0.8530 f          1 4RQ      -0.231200
     22 C2          -7.1020    -0.5940     1.3740 ca         1 4RQ      -0.038000
     23 C1          -8.3630    -0.3070     0.8520 ca         1 4RQ      -0.210000
     24 H1          -2.5140     1.1000    -1.2440 hn         1 4RQ       0.520000
     25 H2           2.0010    -0.8630    -0.4030 hn         1 4RQ       0.417000
     26 H4          -1.8530     0.8550     1.3590 h1         1 4RQ       0.036700
     27 H5          -2.0230    -0.8400     0.9070 h1         1 4RQ       0.036700
     28 H6          -0.3850    -0.5530    -0.9180 hc         1 4RQ       0.062200
     29 H7          -0.2050     1.1520    -0.5190 hc         1 4RQ       0.062200
     30 H8           0.4090    -1.1340     1.4100 h1         1 4RQ       0.031700
     31 H9           0.6360     0.5780     1.7310 h1         1 4RQ       0.031700
     32 H10          3.7770     1.2590    -0.7540 ha         1 4RQ       0.140000
     33 H11          7.9380     0.2000    -0.8790 ha         1 4RQ       0.146000
     34 H12          5.3040    -1.7340     1.9010 ha         1 4RQ       0.140000
     35 H13          2.9420     0.3330     2.0780 h1         1 4RQ       0.042700
     36 H14          2.9700    -1.3880     1.7570 h1         1 4RQ       0.042700
     37 H15         -4.1600    -0.6520     1.5480 hn         1 4RQ       0.358000
     38 H17         -6.9950    -1.1310     2.3070 ha         1 4RQ       0.122000
     39 H18         -9.2640    -0.6090     1.3650 ha         1 4RQ       0.141000
     40 CL1          8.0380    -1.7840     1.1560 cl         1 4RQ      -0.192500
@<TRIPOS>BOND
     1     1     4 1   
     2     1     5 1   
     3     1    24 1   
     4     2     7 1   
     5     2    16 1   
     6     2    25 1   
     7     3    10 ar  
     8     3    17 1   
     9     3    22 ar  
    10     4    17 1   
    11     4    18 2   
    12     5     6 1   
    13     5    26 1   
    14     5    27 1   
    15     6     7 1   
    16     6    28 1   
    17     6    29 1   
    18     7    30 1   
    19     7    31 1   
    20     8    12 ar  
    21     8    15 ar  
    22     8    32 1   
    23     9    11 ar  
    24     9    12 ar  
    25     9    33 1   
    26    10    18 1   
    27    10    19 ar  
    28    11    14 ar  
    29    11    40 1   
    30    12    13 1   
    31    14    15 ar  
    32    14    34 1   
    33    15    16 1   
    34    16    35 1   
    35    16    36 1   
    36    17    37 1   
    37    19    20 ar  
    38    20    21 1   
    39    20    23 ar  
    40    22    23 ar  
    41    22    38 1   
    42    23    39 1   
@<TRIPOS>SUBSTRUCTURE
     1 4RQ         1 TEMP              0 ****  ****    0 ROOT
