@<TRIPOS>MOLECULE
4RR
   41    43     1     0     0
SMALL
abcg2


@<TRIPOS>ATOM
      1 O3           6.8710    -3.9100     8.0220 o          1 4RR      -0.552000
      2 C2           6.6530    -2.8220     7.5160 c          1 4RR       0.561000
      3 C1           5.5030    -2.4660     6.5940 c5         1 4RR      -0.170400
      4 N4           7.4030    -1.7160     7.6570 ns         1 4RR      -0.517900
      5 C5           6.9650    -0.5900     6.8630 c5         1 4RR       0.103000
      6 C6           5.4910    -0.9380     6.5960 c5         1 4RR      -0.027400
      7 C7           4.9010    -0.2670     5.3840 ca         1 4RR      -0.071300
      8 C8           3.9330    -0.9150     4.6100 ca         1 4RR      -0.172000
      9 C9           3.3460    -0.2950     3.5170 ca         1 4RR       0.128100
     10 C16          3.7260     1.0200     3.1800 ca         1 4RR       0.107100
     11 C19          4.6820     1.6630     3.9470 ca         1 4RR      -0.166000
     12 C20          5.2620     1.0240     5.0410 ca         1 4RR      -0.113000
     13 O17          3.1100     1.5490     2.1040 os         1 4RR      -0.319100
     14 C18          3.4480     2.8670     1.7300 c3         1 4RR       0.144900
     15 O10          2.4340    -0.8560     2.7030 os         1 4RR      -0.327100
     16 C11          1.8860    -2.1340     3.0150 c5         1 4RR       0.166300
     17 C12          1.0350    -2.5420     1.8230 c5         1 4RR      -0.093900
     18 C13         -0.2650    -1.7370     1.9740 c5         1 4RR      -0.073400
     19 C14         -0.3630    -1.3830     3.4760 c5         1 4RR      -0.073400
     20 C15          0.8580    -2.0380     4.1380 c5         1 4RR      -0.093900
     21 H181         3.2200     3.5900     2.5180 h1         1 4RR       0.039033
     22 H182         2.8470     3.1060     0.8560 h1         1 4RR       0.039033
     23 H183         4.5050     2.9610     1.4650 h1         1 4RR       0.039033
     24 H19          4.9940     2.6710     3.7110 ha         1 4RR       0.119000
     25 H20          6.0010     1.5640     5.6210 ha         1 4RR       0.110000
     26 H8           3.6400    -1.9210     4.8740 ha         1 4RR       0.119000
     27 H11          2.6890    -2.8520     3.2150 h1         1 4RR       0.050700
     28 H151         1.2120    -1.4970     5.0170 hc         1 4RR       0.053450
     29 H152         0.6210    -3.0530     4.4650 hc         1 4RR       0.053450
     30 H141        -0.3370    -0.3020     3.6160 hc         1 4RR       0.045950
     31 H142        -1.2920    -1.7360     3.9230 hc         1 4RR       0.045950
     32 H131        -1.1270    -2.3090     1.6300 hc         1 4RR       0.045950
     33 H132        -0.2300    -0.8320     1.3670 hc         1 4RR       0.045950
     34 H121         0.8360    -3.6130     1.9060 hc         1 4RR       0.053450
     35 H122         1.5410    -2.3830     0.8690 hc         1 4RR       0.053450
     36 H6           4.9230    -0.6140     7.4760 hc         1 4RR       0.068700
     37 H51          7.5330    -0.5170     5.9300 h1         1 4RR       0.048200
     38 H52          7.0830     0.3460     7.4080 h1         1 4RR       0.048200
     39 HN4          8.2890    -1.7280     8.1390 hn         1 4RR       0.326500
     40 H11A         5.7320    -2.8670     5.6000 hc         1 4RR       0.077700
     41 H12          4.5730    -2.9250     6.9270 hc         1 4RR       0.077700
@<TRIPOS>BOND
     1     1     2 2   
     2     2     3 1   
     3     2     4 1   
     4     3     6 1   
     5     3    40 1   
     6     3    41 1   
     7     4     5 1   
     8     4    39 1   
     9     5     6 1   
    10     5    37 1   
    11     5    38 1   
    12     6     7 1   
    13     6    36 1   
    14     7     8 ar  
    15     7    12 ar  
    16     8     9 ar  
    17     8    26 1   
    18     9    10 ar  
    19     9    15 1   
    20    10    11 ar  
    21    10    13 1   
    22    11    12 ar  
    23    11    24 1   
    24    12    25 1   
    25    13    14 1   
    26    14    21 1   
    27    14    22 1   
    28    14    23 1   
    29    15    16 1   
    30    16    17 1   
    31    16    20 1   
    32    16    27 1   
    33    17    18 1   
    34    17    34 1   
    35    17    35 1   
    36    18    19 1   
    37    18    32 1   
    38    18    33 1   
    39    19    20 1   
    40    19    30 1   
    41    19    31 1   
    42    20    28 1   
    43    20    29 1   
@<TRIPOS>SUBSTRUCTURE
     1 4RR         1 TEMP              0 ****  ****    0 ROOT
