@<TRIPOS>MOLECULE
4RR
   41    43     1     0     0
SMALL
No Charge or Current Charge


@<TRIPOS>ATOM
      1 O3           7.5710    -3.8850     7.9150 o          1 4RR      -0.552000
      2 C2           7.3090    -2.9040     7.2390 c          1 4RR       0.561000
      3 C1           6.1540    -2.6660     6.2800 c5         1 4RR      -0.170400
      4 N4           7.8630    -1.6720     7.4540 ns         1 4RR      -0.517900
      5 C5           7.0710    -0.5590     6.9200 c5         1 4RR       0.103000
      6 C6           5.6800    -1.2450     6.6940 c5         1 4RR      -0.027400
      7 C7           4.9330    -0.5550     5.5320 ca         1 4RR      -0.071300
      8 C8           4.1330    -1.2910     4.6280 ca         1 4RR      -0.172000
      9 C9           3.4270    -0.6510     3.5870 ca         1 4RR       0.128100
     10 C16          3.5340     0.7470     3.4160 ca         1 4RR       0.107100
     11 C19          4.3050     1.4940     4.3310 ca         1 4RR      -0.166000
     12 C20          4.9810     0.8490     5.3810 ca         1 4RR      -0.113000
     13 O17          2.8590     1.3470     2.3650 os         1 4RR      -0.319100
     14 C18          2.8880     2.7660     2.1380 c3         1 4RR       0.144900
     15 O10          2.6690    -1.3880     2.6920 os         1 4RR      -0.327100
     16 C11          1.5920    -2.0810     3.3920 c5         1 4RR       0.166300
     17 C12          0.8070    -2.9160     2.3510 c5         1 4RR      -0.093900
     18 C13          0.1020    -1.8280     1.4880 c5         1 4RR      -0.073400
     19 C14         -0.1680    -0.6450     2.4740 c5         1 4RR      -0.073400
     20 C15          0.4870    -1.0750     3.8230 c5         1 4RR      -0.093900
     21 H181         2.4760     3.3070     3.0000 h1         1 4RR       0.039033
     22 H182         2.2860     3.0220     1.2580 h1         1 4RR       0.039033
     23 H183         3.9140     3.1120     1.9610 h1         1 4RR       0.039033
     24 H19          4.3900     2.5740     4.2490 ha         1 4RR       0.119000
     25 H20          5.5500     1.4580     6.0790 ha         1 4RR       0.110000
     26 H8           4.0620    -2.3700     4.7210 ha         1 4RR       0.119000
     27 H11          1.9750    -2.6980     4.2160 h1         1 4RR       0.050700
     28 H151         0.8730    -0.2230     4.3920 hc         1 4RR       0.053450
     29 H152        -0.2480    -1.5710     4.4680 hc         1 4RR       0.053450
     30 H141         0.2800     0.2820     2.0950 hc         1 4RR       0.045950
     31 H142        -1.2390    -0.4480     2.5950 hc         1 4RR       0.045950
     32 H131        -0.8210    -2.2060     1.0330 hc         1 4RR       0.045950
     33 H132         0.7480    -1.5020     0.6640 hc         1 4RR       0.045950
     34 H121         0.0740    -3.5660     2.8450 hc         1 4RR       0.053450
     35 H122         1.4600    -3.5640     1.7560 hc         1 4RR       0.053450
     36 H6           5.0900    -1.2700     7.6190 hc         1 4RR       0.068700
     37 H51          7.5040    -0.1940     5.9790 h1         1 4RR       0.048200
     38 H52          7.0040     0.2850     7.6200 h1         1 4RR       0.048200
     39 HN4          8.5880    -1.5900     8.1580 hn         1 4RR       0.326500
     40 H11A         6.5690    -2.6180     5.2660 hc         1 4RR       0.077700
     41 H12          5.4030    -3.4590     6.3500 hc         1 4RR       0.077700
@<TRIPOS>BOND
     1     1     2 2   
     2     2     3 1   
     3     2     4 1   
     4     3     6 1   
     5     3    40 1   
     6     3    41 1   
     7     4     5 1   
     8     4    39 1   
     9     5     6 1   
    10     5    37 1   
    11     5    38 1   
    12     6     7 1   
    13     6    36 1   
    14     7     8 ar  
    15     7    12 ar  
    16     8     9 ar  
    17     8    26 1   
    18     9    10 ar  
    19     9    15 1   
    20    10    11 ar  
    21    10    13 1   
    22    11    12 ar  
    23    11    24 1   
    24    12    25 1   
    25    13    14 1   
    26    14    21 1   
    27    14    22 1   
    28    14    23 1   
    29    15    16 1   
    30    16    17 1   
    31    16    20 1   
    32    16    27 1   
    33    17    18 1   
    34    17    34 1   
    35    17    35 1   
    36    18    19 1   
    37    18    32 1   
    38    18    33 1   
    39    19    20 1   
    40    19    30 1   
    41    19    31 1   
    42    20    28 1   
    43    20    29 1   
@<TRIPOS>SUBSTRUCTURE
     1 4RR         1 TEMP              0 ****  ****    0 ROOT
