@<TRIPOS>MOLECULE
4RT
   57    62     1     0     0
SMALL
bcc


@<TRIPOS>ATOM
      1 N1          -2.7580     0.0590    -0.4690 n          1 4RT      -0.326000
      2 C4           0.0340     2.5940    -0.1270 c6         1 4RT      -0.047200
      3 C5          -2.0650     1.2020    -0.1500 cc         1 4RT      -0.094600
      4 C6          -2.2080    -0.9720    -1.1470 c          1 4RT       0.651700
      5 C7          -0.8110    -0.7800    -1.5550 cc         1 4RT       0.105900
      6 C8          -4.1610     0.1070     0.0090 c5         1 4RT       0.331800
      7 C13         -5.4080    -1.9880     0.2270 cx         1 4RT      -0.070700
      8 C20          5.8960     1.3200     1.4220 ca         1 4RT      -0.168000
      9 C21          6.0390    -0.0500     1.4390 ca         1 4RT       0.148900
     10 C22          5.3410    -0.8500     0.5460 ca         1 4RT      -0.027600
     11 F            6.8590    -0.6240     2.3210 f          1 4RT      -0.124900
     12 C19          5.0400     1.8960     0.4930 ca         1 4RT      -0.096000
     13 CL           5.5550    -2.5590     0.6020 cl         1 4RT      -0.075400
     14 C23          4.4910    -0.2700    -0.3780 ca         1 4RT      -0.075000
     15 C18          4.3330     1.1140    -0.4120 ca         1 4RT      -0.124300
     16 N            1.9960     1.4980    -1.0650 n          1 4RT      -0.476800
     17 C1           1.2910     0.5430    -1.7090 c          1 4RT       0.731700
     18 O4           1.7540    -0.1200    -2.6260 o          1 4RT      -0.614500
     19 C2          -0.1170     0.3580    -1.2470 cd         1 4RT      -0.184200
     20 O           -0.3080    -1.8070    -2.2150 oh         1 4RT      -0.432100
     21 O1          -2.7800    -2.0210    -1.4290 o          1 4RT      -0.640500
     22 C14         -4.4920    -1.0450     0.9480 cx         1 4RT      -0.156000
     23 O3          -3.9190    -2.4680     2.7680 oh         1 4RT      -0.598800
     24 C16         -5.9450    -1.1490     1.3370 cx         1 4RT      -0.108400
     25 C12         -5.6930    -1.4530    -1.1610 c5         1 4RT      -0.053400
     26 C11         -5.1790    -0.0070    -1.1480 c5         1 4RT      -0.093400
     27 N2          -4.1580     1.4120     0.6550 n          1 4RT      -0.488800
     28 C9          -2.9860     2.0770     0.5870 c          1 4RT       0.729700
     29 O2          -2.7510     3.1800     1.0460 o          1 4RT      -0.607500
     30 C3          -0.7710     1.3860    -0.4940 cd         1 4RT      -0.018200
     31 C            1.4680     2.1700     0.1090 c6         1 4RT       0.106000
     32 H1          -0.0040     3.3310    -0.9350 hc         1 4RT       0.081700
     33 H2          -0.3560     3.0740     0.7660 hc         1 4RT       0.081700
     34 H3          -6.1970     1.9030     0.7500 h1         1 4RT       0.051033
     35 H4          -5.4810     1.4060     2.2920 h1         1 4RT       0.051033
     36 H5          -5.0980     2.9850     1.5990 h1         1 4RT       0.051033
     37 H6          -5.3160    -3.0570     0.3700 hc         1 4RT       0.110700
     38 H7          -2.5380    -1.8120     1.3830 h1         1 4RT       0.026200
     39 H8          -3.1090    -0.5740     2.5010 h1         1 4RT       0.026200
     40 H9           3.5460     2.8220    -1.4280 h1         1 4RT       0.070700
     41 H10          3.5750     1.3640    -2.4050 h1         1 4RT       0.070700
     42 H11          6.4470     1.9290     2.1270 ha         1 4RT       0.154000
     43 H12          4.9280     2.9730     0.4780 ha         1 4RT       0.135000
     44 H13          3.9570    -0.9000    -1.0770 ha         1 4RT       0.168000
     45 H14         -1.0080    -2.4840    -2.2680 ho         1 4RT       0.459000
     46 H15         -3.2090    -2.7390     3.3570 ho         1 4RT       0.411000
     47 H16         -6.6410    -0.3530     1.0980 hc         1 4RT       0.081200
     48 H17         -6.1470    -1.6210     2.2880 hc         1 4RT       0.081200
     49 H18         -5.1780    -2.0460    -1.9120 hc         1 4RT       0.064200
     50 H19         -6.7600    -1.4860    -1.3910 hc         1 4RT       0.064200
     51 H20         -5.9950     0.6900    -0.9590 hc         1 4RT       0.063200
     52 H21         -4.7330     0.3000    -2.0930 hc         1 4RT       0.063200
     53 H22          2.0840     3.0470     0.3050 h1         1 4RT       0.050700
     54 H23          1.5340     1.5260     0.9920 h1         1 4RT       0.050700
     55 C10         -5.2960     1.9430     1.3630 c3         1 4RT       0.095300
     56 C15         -3.4220    -1.4590     1.9260 c3         1 4RT       0.187400
     57 C17          3.3860     1.7420    -1.4030 c3         1 4RT       0.148300
@<TRIPOS>BOND
     1     1     3 1   
     2     1     4 1   
     3     1     6 1   
     4     2    30 1   
     5     2    31 1   
     6     2    32 1   
     7     2    33 1   
     8     3    28 1   
     9     3    30 2   
    10     4     5 1   
    11     4    21 2   
    12     5    19 2   
    13     5    20 1   
    14     6    22 1   
    15     6    26 1   
    16     6    27 1   
    17     7    22 1   
    18     7    24 1   
    19     7    25 1   
    20     7    37 1   
    21     8     9 ar  
    22     8    12 ar  
    23     8    42 1   
    24     9    10 ar  
    25     9    11 1   
    26    10    13 1   
    27    10    14 ar  
    28    12    15 ar  
    29    12    43 1   
    30    14    15 ar  
    31    14    44 1   
    32    15    57 1   
    33    16    17 1   
    34    16    31 1   
    35    16    57 1   
    36    17    18 2   
    37    17    19 1   
    38    19    30 1   
    39    20    45 1   
    40    22    24 1   
    41    22    56 1   
    42    23    46 1   
    43    23    56 1   
    44    24    47 1   
    45    24    48 1   
    46    25    26 1   
    47    25    49 1   
    48    25    50 1   
    49    26    51 1   
    50    26    52 1   
    51    27    28 1   
    52    27    55 1   
    53    28    29 2   
    54    31    53 1   
    55    31    54 1   
    56    34    55 1   
    57    35    55 1   
    58    36    55 1   
    59    38    56 1   
    60    39    56 1   
    61    40    57 1   
    62    41    57 1   
@<TRIPOS>SUBSTRUCTURE
     1 4RT         1 TEMP              0 ****  ****    0 ROOT
