@<TRIPOS>MOLECULE
4RT
   57    62     1     0     0
SMALL
No Charge or Current Charge


@<TRIPOS>ATOM
      1 N1          -2.8140    -0.0410    -0.4250 n          1 4RT      -0.259000
      2 C4           0.0500     2.4960    -0.0900 c6         1 4RT      -0.047200
      3 C5          -2.0830     1.0820    -0.0960 cc         1 4RT      -0.094600
      4 C6          -2.2440    -1.1730    -1.0230 c          1 4RT       0.509200
      5 C7          -0.8070    -0.9950    -1.3930 cc         1 4RT       0.105900
      6 C8          -4.2120     0.1020     0.0430 c5         1 4RT       0.331800
      7 C13         -5.6150    -1.8880     0.0540 cx         1 4RT      -0.070700
      8 C20          5.9990     1.5610     1.3730 ca         1 4RT      -0.150000
      9 C21          6.3920     0.2140     1.3310 ca         1 4RT       0.184000
     10 C22          5.8340    -0.6560     0.3740 ca         1 4RT       0.064000
     11 F            7.3090    -0.2390     2.2160 f          1 4RT      -0.160000
     12 C19          5.0450     2.0440     0.4590 ca         1 4RT      -0.078000
     13 Cl           6.3150    -2.3520     0.3080 cl         1 4RT      -0.167000
     14 C23          4.8820    -0.1720    -0.5390 ca         1 4RT      -0.057000
     15 C18          4.4830     1.1790    -0.5020 ca         1 4RT      -0.124300
     16 N            2.0540     1.4050    -1.0620 n          1 4RT      -0.409800
     17 C1           1.3710     0.2760    -1.5660 c          1 4RT       0.589200
     18 O4           1.9350    -0.5110    -2.3150 o          1 4RT      -0.539000
     19 C2          -0.0640     0.1590    -1.1250 cd         1 4RT      -0.184200
     20 O           -0.3110    -2.1050    -2.0010 oh         1 4RT      -0.471100
     21 O1          -2.8480    -2.2140    -1.2500 o          1 4RT      -0.565000
     22 C14         -4.7130    -1.0560     0.9410 cx         1 4RT      -0.156000
     23 O3          -4.3220    -2.6720     2.7900 oh         1 4RT      -0.661000
     24 C16         -6.2230    -1.0900     1.1850 cx         1 4RT      -0.108400
     25 C12         -5.7750    -1.2210    -1.3360 c5         1 4RT      -0.053400
     26 C11         -5.1700     0.2190    -1.1880 c5         1 4RT      -0.093400
     27 N2          -4.2060     1.3900     0.7710 n          1 4RT      -0.421800
     28 C9          -2.9620     2.0260     0.6470 c          1 4RT       0.587200
     29 O2          -2.6960     3.1310     1.0980 o          1 4RT      -0.532000
     30 C3          -0.7390     1.2410    -0.4160 cd         1 4RT      -0.018200
     31 C            1.5310     2.1540     0.0940 c6         1 4RT       0.106000
     32 H1          -0.0650     3.2370    -0.8920 hc         1 4RT       0.081700
     33 H2          -0.2850     2.9740     0.8360 hc         1 4RT       0.081700
     34 H3          -6.2270     2.0260     0.9610 h1         1 4RT       0.051033
     35 H4          -5.4890     1.3850     2.4580 h1         1 4RT       0.051033
     36 H5          -5.0600     3.0110     1.8700 h1         1 4RT       0.051033
     37 H6          -5.5960    -2.9720     0.1450 hc         1 4RT       0.110700
     38 H7          -2.8500    -2.0160     1.4830 h1         1 4RT       0.026200
     39 H8          -3.4120    -0.8080     2.6380 h1         1 4RT       0.026200
     40 H9           3.5530     2.7850    -1.5930 h1         1 4RT       0.070700
     41 H10          3.6330     1.2700    -2.4790 h1         1 4RT       0.070700
     42 H11          6.4320     2.2280     2.1140 ha         1 4RT       0.136000
     43 H12          4.7440     3.0890     0.5000 ha         1 4RT       0.117000
     44 H13          4.4540    -0.8490    -1.2740 ha         1 4RT       0.150000
     45 H14         -1.0610    -2.7450    -2.0380 ho         1 4RT       0.498000
     46 H15         -3.6280    -2.9610     3.4230 ho         1 4RT       0.450000
     47 H16         -6.8390    -0.2330     0.9310 hc         1 4RT       0.081200
     48 H17         -6.5990    -1.6500     2.0380 hc         1 4RT       0.081200
     49 H18         -5.2450    -1.7910    -2.1080 hc         1 4RT       0.064200
     50 H19         -6.8230    -1.1870    -1.6560 hc         1 4RT       0.064200
     51 H20         -5.9740     0.9410    -1.0110 hc         1 4RT       0.063200
     52 H21         -4.6570     0.5540    -2.0970 hc         1 4RT       0.063200
     53 H22          2.1040     3.0810     0.2380 h1         1 4RT       0.050700
     54 H23          1.6570     1.5410     0.9980 h1         1 4RT       0.050700
     55 C10         -5.3090     1.9880     1.5590 c3         1 4RT       0.095300
     56 C15         -3.7430    -1.6310     1.9890 c3         1 4RT       0.210600
     57 C17          3.4420     1.6980    -1.4860 c3         1 4RT       0.148300
@<TRIPOS>BOND
     1     1     3 1   
     2     1     4 1   
     3     1     6 1   
     4     2    30 1   
     5     2    31 1   
     6     2    32 1   
     7     2    33 1   
     8     3    28 1   
     9     3    30 2   
    10     4     5 1   
    11     4    21 2   
    12     5    19 2   
    13     5    20 1   
    14     6    22 1   
    15     6    26 1   
    16     6    27 1   
    17     7    22 1   
    18     7    24 1   
    19     7    25 1   
    20     7    37 1   
    21     8     9 ar  
    22     8    12 ar  
    23     8    42 1   
    24     9    10 ar  
    25     9    11 1   
    26    10    13 1   
    27    10    14 ar  
    28    12    15 ar  
    29    12    43 1   
    30    14    15 ar  
    31    14    44 1   
    32    15    57 1   
    33    16    17 1   
    34    16    31 1   
    35    16    57 1   
    36    17    18 2   
    37    17    19 1   
    38    19    30 1   
    39    20    45 1   
    40    22    24 1   
    41    22    56 1   
    42    23    46 1   
    43    23    56 1   
    44    24    47 1   
    45    24    48 1   
    46    25    26 1   
    47    25    49 1   
    48    25    50 1   
    49    26    51 1   
    50    26    52 1   
    51    27    28 1   
    52    27    55 1   
    53    28    29 2   
    54    31    53 1   
    55    31    54 1   
    56    34    55 1   
    57    35    55 1   
    58    36    55 1   
    59    38    56 1   
    60    39    56 1   
    61    40    57 1   
    62    41    57 1   
@<TRIPOS>SUBSTRUCTURE
     1 4RT         1 TEMP              0 ****  ****    0 ROOT
