@<TRIPOS>MOLECULE
4RU
   22    23     1     0     0
SMALL
No Charge or Current Charge


@<TRIPOS>ATOM
      1 N1           3.6450    -1.0550     0.0550 nt         1 4RU      -0.578000
      2 C4           1.3180    -0.2430     0.0130 ca         1 4RU       0.074500
      3 C7          -1.3510    -0.8960    -0.0290 ca         1 4RU       0.251000
      4 C8          -2.7080    -1.2690    -0.0520 ca         1 4RU      -0.087000
      5 C10         -3.3880     1.0610     0.0050 ca         1 4RU      -0.114000
      6 C13          0.3680     0.8180     0.0270 ca         1 4RU       0.423000
      7 C2           2.8210     0.0190     0.0100 c          1 4RU       0.536600
      8 O3           3.3300     1.1310    -0.0400 o          1 4RU      -0.666100
      9 N5           0.9090    -1.5400    -0.0180 nb         1 4RU      -0.274000
     10 N6          -0.3940    -1.8520    -0.0380 nb         1 4RU      -0.353000
     11 C9          -3.7240    -0.3000    -0.0360 ca         1 4RU      -0.086000
     12 C11         -2.0400     1.4530     0.0270 ca         1 4RU      -0.083000
     13 C12         -1.0090     0.4790     0.0060 ca         1 4RU      -0.141000
     14 N14          0.7600     2.1420     0.0630 nv         1 4RU      -1.081000
     15 H1           3.2520    -1.9850     0.0910 hn         1 4RU       0.329500
     16 H2           4.6440    -0.9170     0.0500 hn         1 4RU       0.329500
     17 H3          -2.9730    -2.3230    -0.0800 ha         1 4RU       0.137000
     18 H4          -4.1730     1.8140     0.0210 ha         1 4RU       0.117000
     19 H5          -4.7680    -0.6040    -0.0530 ha         1 4RU       0.120000
     20 H6          -1.8150     2.5160     0.0670 ha         1 4RU       0.106000
     21 H7           0.1380     2.8520    -0.3150 hn         1 4RU       0.518500
     22 H8           1.7640     2.3180    -0.0430 hn         1 4RU       0.518500
@<TRIPOS>BOND
     1     1     7 1   
     2     1    15 1   
     3     1    16 1   
     4     2     6 ar  
     5     2     7 1   
     6     2     9 ar  
     7     3     4 ar  
     8     3    10 ar  
     9     3    13 ar  
    10     4    11 ar  
    11     4    17 1   
    12     5    11 ar  
    13     5    12 ar  
    14     5    18 1   
    15     6    13 ar  
    16     6    14 1   
    17     7     8 2   
    18     9    10 ar  
    19    11    19 1   
    20    12    13 ar  
    21    12    20 1   
    22    14    21 1   
    23    14    22 1   
@<TRIPOS>SUBSTRUCTURE
     1 4RU         1 TEMP              0 ****  ****    0 ROOT
