@<TRIPOS>MOLECULE
4RU
   22    23     1     0     0
SMALL
abcg2


@<TRIPOS>ATOM
      1 N1           3.5050    -1.1120     0.0230 nt         1 4RU      -0.578000
      2 C4           1.2990    -0.1910     0.0010 ca         1 4RU       0.074500
      3 C7          -1.2880    -0.8500    -0.0110 ca         1 4RU       0.251000
      4 C8          -2.6340    -1.2710    -0.0160 ca         1 4RU      -0.087000
      5 C10         -3.3460     1.0280    -0.0360 ca         1 4RU      -0.114000
      6 C13          0.3970     0.8910    -0.0150 ca         1 4RU       0.423000
      7 C2           2.7730     0.0060     0.0090 c          1 4RU       0.536600
      8 O3           3.2760     1.1310     0.0030 o          1 4RU      -0.666100
      9 N5           0.8940    -1.4680     0.0090 nb         1 4RU      -0.274000
     10 N6          -0.3330    -1.8210     0.0030 nb         1 4RU      -0.353000
     11 C9          -3.6440    -0.3480    -0.0290 ca         1 4RU      -0.086000
     12 C11         -2.0450     1.4570    -0.0320 ca         1 4RU      -0.083000
     13 C12         -0.9880     0.5250    -0.0190 ca         1 4RU      -0.141000
     14 N14          0.7850     2.1610    -0.0240 nv         1 4RU      -1.081000
     15 H1           3.0640    -2.0150     0.0290 hn         1 4RU       0.329500
     16 H2           4.5100    -1.0570     0.0310 hn         1 4RU       0.329500
     17 H3          -2.8400    -2.3330    -0.0100 ha         1 4RU       0.137000
     18 H4          -4.1500     1.7510    -0.0460 ha         1 4RU       0.117000
     19 H5          -4.6770    -0.6720    -0.0340 ha         1 4RU       0.120000
     20 H6          -1.8530     2.5220    -0.0370 ha         1 4RU       0.106000
     21 H7           0.1300     2.9220    -0.0450 hn         1 4RU       0.518500
     22 H8           1.7730     2.3640    -0.0240 hn         1 4RU       0.518500
@<TRIPOS>BOND
     1     1     7 1   
     2     1    15 1   
     3     1    16 1   
     4     2     6 ar  
     5     2     7 1   
     6     2     9 ar  
     7     3     4 ar  
     8     3    10 ar  
     9     3    13 ar  
    10     4    11 ar  
    11     4    17 1   
    12     5    11 ar  
    13     5    12 ar  
    14     5    18 1   
    15     6    13 ar  
    16     6    14 1   
    17     7     8 2   
    18     9    10 ar  
    19    11    19 1   
    20    12    13 ar  
    21    12    20 1   
    22    14    21 1   
    23    14    22 1   
@<TRIPOS>SUBSTRUCTURE
     1 4RU         1 TEMP              0 ****  ****    0 ROOT
