@<TRIPOS>MOLECULE
4RV
   34    36     1     0     0
SMALL
No Charge or Current Charge


@<TRIPOS>ATOM
      1 C4         -22.5320     9.3000    -6.8030 ca         1 4RV       0.338900
      2 C6         -23.1400     7.9500    -5.0260 ca         1 4RV       0.348900
      3 C7         -22.2200     8.5740    -4.1490 cp         1 4RV      -0.085000
      4 C8         -22.1130     8.1220    -2.7300 cp         1 4RV      -0.011000
      5 C10        -23.0280     8.1360    -0.4620 ca         1 4RV      -0.113000
      6 C13        -19.8970     6.0590    -0.5310 ca         1 4RV       0.421000
      7 C15        -18.9430     5.6780    -1.5160 ca         1 4RV       0.077500
      8 C2         -21.4260     9.6300    -4.6640 ca         1 4RV      -0.002300
      9 C3         -21.5940     9.9850    -6.0150 ca         1 4RV      -0.169000
     10 N5         -23.3010     8.2970    -6.3250 nb         1 4RV      -0.668000
     11 C9         -23.0980     8.5280    -1.8040 ca         1 4RV      -0.077000
     12 C11        -21.9740     7.3230    -0.0230 ca         1 4RV      -0.080000
     13 C12        -20.9770     6.8870    -0.9310 ca         1 4RV      -0.141000
     14 N14        -19.7840     5.6420     0.7820 nv         1 4RV      -1.086000
     15 N16        -19.0720     6.1000    -2.8010 nb         1 4RV      -0.273000
     16 N17        -20.0950     6.8810    -3.1700 nb         1 4RV      -0.350000
     17 C18        -21.0430     7.2900    -2.2910 ca         1 4RV       0.263000
     18 C19        -17.7600     4.7720    -1.1900 c          1 4RV       0.531600
     19 N20        -16.8770     4.5120    -2.1830 nt         1 4RV      -0.577000
     20 O21        -17.5620     4.2570    -0.0970 o          1 4RV      -0.668100
     21 H1         -22.6750     9.5640    -7.8500 h4         1 4RV       0.018100
     22 H2         -23.7710     7.1380    -4.6670 h4         1 4RV       0.018100
     23 H3         -23.7910     8.4650     0.2400 ha         1 4RV       0.121000
     24 H4         -20.8470    10.6480    -2.8310 hc         1 4RV       0.051367
     25 H5         -19.5270     9.7670    -3.6190 hc         1 4RV       0.051367
     26 H6         -20.0870    11.3090    -4.2820 hc         1 4RV       0.051367
     27 H7         -21.0080    10.7850    -6.4580 ha         1 4RV       0.121000
     28 H8         -23.9180     9.1630    -2.1350 ha         1 4RV       0.125000
     29 H9         -21.9470     7.0450     1.0280 ha         1 4RV       0.109000
     30 H10        -20.6240     5.5660     1.3490 hn         1 4RV       0.521500
     31 H11        -19.0470     4.9550     0.9730 hn         1 4RV       0.521500
     32 H12        -16.0860     3.9130    -2.0020 hn         1 4RV       0.332500
     33 H13        -17.0190     4.9180    -3.0970 hn         1 4RV       0.332500
     34 C1         -20.4170    10.3790    -3.8030 c3         1 4RV      -0.055800
@<TRIPOS>BOND
     1     1     9 ar  
     2     1    10 ar  
     3     1    21 1   
     4     2     3 ar  
     5     2    10 ar  
     6     2    22 1   
     7     3     4 1   
     8     3     8 ar  
     9     4    11 ar  
    10     4    17 ar  
    11     5    11 ar  
    12     5    12 ar  
    13     5    23 1   
    14     6     7 ar  
    15     6    13 ar  
    16     6    14 1   
    17     7    15 ar  
    18     7    18 1   
    19     8     9 ar  
    20     8    34 1   
    21     9    27 1   
    22    11    28 1   
    23    12    13 ar  
    24    12    29 1   
    25    13    17 ar  
    26    14    30 1   
    27    14    31 1   
    28    15    16 ar  
    29    16    17 ar  
    30    18    19 1   
    31    18    20 2   
    32    19    32 1   
    33    19    33 1   
    34    24    34 1   
    35    25    34 1   
    36    26    34 1   
@<TRIPOS>SUBSTRUCTURE
     1 4RV         1 TEMP              0 ****  ****    0 ROOT
