@<TRIPOS>MOLECULE
4RV
   34    36     1     0     0
SMALL
abcg2


@<TRIPOS>ATOM
      1 C4         -22.5200     9.3440    -6.7280 ca         1 4RV       0.338900
      2 C6         -23.1940     8.0570    -4.9750 ca         1 4RV       0.348900
      3 C7         -22.2000     8.5590    -4.1360 cp         1 4RV      -0.085000
      4 C8         -22.1410     8.0930    -2.7270 cp         1 4RV      -0.011000
      5 C10        -23.1100     8.0280    -0.5020 ca         1 4RV      -0.113000
      6 C13        -19.9310     6.0500    -0.5010 ca         1 4RV       0.421000
      7 C15        -18.9890     5.7480    -1.5070 ca         1 4RV       0.077500
      8 C2         -21.3240     9.5300    -4.6450 ca         1 4RV      -0.002300
      9 C3         -21.5060     9.9130    -5.9710 ca         1 4RV      -0.169000
     10 N5         -23.3640     8.4270    -6.2460 nb         1 4RV      -0.668000
     11 C9         -23.1420     8.4410    -1.8460 ca         1 4RV      -0.077000
     12 C11        -22.0730     7.2590    -0.0360 ca         1 4RV      -0.080000
     13 C12        -21.0380     6.8660    -0.9090 ca         1 4RV      -0.141000
     14 N14        -19.8060     5.6020     0.7510 nv         1 4RV      -1.086000
     15 N16        -19.1260     6.1770    -2.7770 nb         1 4RV      -0.273000
     16 N17        -20.1150     6.9080    -3.1730 nb         1 4RV      -0.350000
     17 C18        -21.0720     7.2770    -2.2630 ca         1 4RV       0.263000
     18 C19        -17.7760     4.9280    -1.2370 c          1 4RV       0.531600
     19 N20        -16.9570     4.7320    -2.2830 nt         1 4RV      -0.577000
     20 O21        -17.5360     4.4610    -0.1120 o          1 4RV      -0.668100
     21 H1         -22.6640     9.6420    -7.7610 h4         1 4RV       0.018100
     22 H2         -23.8830     7.3120    -4.5910 h4         1 4RV       0.018100
     23 H3         -23.9060     8.3250     0.1670 ha         1 4RV       0.121000
     24 H4         -20.6340    10.4500    -2.8310 hc         1 4RV       0.051367
     25 H5         -19.4500     9.4200    -3.6190 hc         1 4RV       0.051367
     26 H6         -19.8150    11.0140    -4.3000 hc         1 4RV       0.051367
     27 H7         -20.8620    10.6640    -6.4130 ha         1 4RV       0.121000
     28 H8         -23.9600     9.0580    -2.1940 ha         1 4RV       0.125000
     29 H9         -22.0630     6.9610     1.0030 ha         1 4RV       0.109000
     30 H10        -20.4830     5.8170     1.4620 hn         1 4RV       0.521500
     31 H11        -18.9940     5.0390     0.9680 hn         1 4RV       0.521500
     32 H12        -16.1280     4.1730    -2.1660 hn         1 4RV       0.332500
     33 H13        -17.1930     5.1150    -3.1830 hn         1 4RV       0.332500
     34 C1         -20.2460    10.1450    -3.8040 c3         1 4RV      -0.055800
@<TRIPOS>BOND
     1     1     9 ar  
     2     1    10 ar  
     3     1    21 1   
     4     2     3 ar  
     5     2    10 ar  
     6     2    22 1   
     7     3     4 1   
     8     3     8 ar  
     9     4    11 ar  
    10     4    17 ar  
    11     5    11 ar  
    12     5    12 ar  
    13     5    23 1   
    14     6     7 ar  
    15     6    13 ar  
    16     6    14 1   
    17     7    15 ar  
    18     7    18 1   
    19     8     9 ar  
    20     8    34 1   
    21     9    27 1   
    22    11    28 1   
    23    12    13 ar  
    24    12    29 1   
    25    13    17 ar  
    26    14    30 1   
    27    14    31 1   
    28    15    16 ar  
    29    16    17 ar  
    30    18    19 1   
    31    18    20 2   
    32    19    32 1   
    33    19    33 1   
    34    24    34 1   
    35    25    34 1   
    36    26    34 1   
@<TRIPOS>SUBSTRUCTURE
     1 4RV         1 TEMP              0 ****  ****    0 ROOT
