@<TRIPOS>MOLECULE
4RW
   25    26     1     0     0
SMALL
abcg2


@<TRIPOS>ATOM
      1 C7           0.5960    -1.0370     0.6000 c6         1 4RW      -0.092700
      2 C6          -1.4310     0.9360     0.0840 c2         1 4RW       0.694100
      3 C1           2.4010    -0.5650    -1.1000 c6         1 4RW      -0.073400
      4 C5          -0.7730    -1.6300     0.8820 c6         1 4RW       0.073600
      5 C4           2.0690     0.9770     0.8530 c6         1 4RW      -0.058400
      6 C3           1.0200    -1.1690    -0.8620 c6         1 4RW      -0.068400
      7 C2           2.4680     0.8780    -0.6150 c6         1 4RW      -0.074400
      8 C8           0.6710     0.4090     1.0980 c6         1 4RW       0.164500
      9 N9          -2.3390     1.8440    -0.3960 nv         1 4RW      -1.008200
     10 N10         -0.2980     1.3060     0.5030 n2         1 4RW      -0.690900
     11 S11         -2.1090    -0.7090     0.0630 ss         1 4RW      -0.417200
     12 H1           1.3000    -1.6150     1.2090 hc         1 4RW       0.062700
     13 H2           3.1540    -1.1600    -0.5710 hc         1 4RW       0.038200
     14 H3           2.6530    -0.6240    -2.1620 hc         1 4RW       0.038200
     15 H4          -0.8500    -2.6520     0.5100 h1         1 4RW       0.074200
     16 H5          -0.9720    -1.6490     1.9540 h1         1 4RW       0.074200
     17 H6           2.7880     0.4230     1.4660 hc         1 4RW       0.046700
     18 H7           2.1010     2.0150     1.1930 hc         1 4RW       0.046700
     19 H8           1.0180    -2.2260    -1.1420 hc         1 4RW       0.046200
     20 H9           0.2920    -0.6780    -1.5140 hc         1 4RW       0.046200
     21 H10          3.4740     1.2790    -0.7580 hc         1 4RW       0.044700
     22 H11          1.7960     1.5000    -1.2150 hc         1 4RW       0.044700
     23 H12          0.5020     0.3980     2.1840 h1         1 4RW       0.056700
     24 H13         -1.9390     2.7330    -0.6570 hn         1 4RW       0.466500
     25 H14         -3.0280     1.5140    -1.0530 hn         1 4RW       0.466500
@<TRIPOS>BOND
     1     1     4 1   
     2     1     6 1   
     3     1     8 1   
     4     1    12 1   
     5     2     9 1   
     6     2    10 2   
     7     2    11 1   
     8     3     6 1   
     9     3     7 1   
    10     3    13 1   
    11     3    14 1   
    12     4    11 1   
    13     4    15 1   
    14     4    16 1   
    15     5     7 1   
    16     5     8 1   
    17     5    17 1   
    18     5    18 1   
    19     6    19 1   
    20     6    20 1   
    21     7    21 1   
    22     7    22 1   
    23     8    10 1   
    24     8    23 1   
    25     9    24 1   
    26     9    25 1   
@<TRIPOS>SUBSTRUCTURE
     1 4RW         1 TEMP              0 ****  ****    0 ROOT
