@<TRIPOS>MOLECULE
4RW
   25    26     1     0     0
SMALL
No Charge or Current Charge


@<TRIPOS>ATOM
      1 C7           0.5880    -1.0410     0.6000 c6         1 4RW      -0.092700
      2 C6          -1.5080     0.9730     0.1490 c2         1 4RW       0.694100
      3 C1           2.4310    -0.5850    -1.1190 c6         1 4RW      -0.073400
      4 C5          -0.8070    -1.6300     0.8750 c6         1 4RW       0.073600
      5 C4           2.0910     0.9900     0.8670 c6         1 4RW      -0.058400
      6 C3           1.0130    -1.1650    -0.8950 c6         1 4RW      -0.068400
      7 C2           2.5250     0.8780    -0.6190 c6         1 4RW      -0.074400
      8 C8           0.6590     0.4320     1.1040 c6         1 4RW       0.164500
      9 N9          -2.4060     1.8310    -0.3680 nv         1 4RW      -1.008200
     10 N10         -0.3660     1.3570     0.5600 n2         1 4RW      -0.690900
     11 S11         -2.1360    -0.6800     0.0350 ss         1 4RW      -0.417200
     12 H1           1.3030    -1.6290     1.1930 hc         1 4RW       0.062700
     13 H2           3.1710    -1.2040    -0.5920 hc         1 4RW       0.038200
     14 H3           2.6890    -0.6320    -2.1860 hc         1 4RW       0.038200
     15 H4          -0.8620    -2.6790     0.5490 h1         1 4RW       0.074200
     16 H5          -1.0080    -1.6020     1.9550 h1         1 4RW       0.074200
     17 H6           2.8030     0.4370     1.4940 hc         1 4RW       0.046700
     18 H7           2.1460     2.0370     1.1960 hc         1 4RW       0.046700
     19 H8           0.9940    -2.2190    -1.2040 hc         1 4RW       0.046200
     20 H9           0.3020    -0.6390    -1.5460 hc         1 4RW       0.046200
     21 H10          3.5530     1.2450    -0.7350 hc         1 4RW       0.044700
     22 H11          1.8920     1.5240    -1.2420 hc         1 4RW       0.044700
     23 H12          0.5060     0.4180     2.1940 h1         1 4RW       0.056700
     24 H13         -1.9710     2.6860    -0.6880 hn         1 4RW       0.466500
     25 H14         -3.0400     1.3960    -1.0240 hn         1 4RW       0.466500
@<TRIPOS>BOND
     1     1     4 1   
     2     1     6 1   
     3     1     8 1   
     4     1    12 1   
     5     2     9 1   
     6     2    10 2   
     7     2    11 1   
     8     3     6 1   
     9     3     7 1   
    10     3    13 1   
    11     3    14 1   
    12     4    11 1   
    13     4    15 1   
    14     4    16 1   
    15     5     7 1   
    16     5     8 1   
    17     5    17 1   
    18     5    18 1   
    19     6    19 1   
    20     6    20 1   
    21     7    21 1   
    22     7    22 1   
    23     8    10 1   
    24     8    23 1   
    25     9    24 1   
    26     9    25 1   
@<TRIPOS>SUBSTRUCTURE
     1 4RW         1 TEMP              0 ****  ****    0 ROOT
