@<TRIPOS>MOLECULE
4RX
   44    47     1     0     0
SMALL
No Charge or Current Charge


@<TRIPOS>ATOM
      1 C7           0.2220    -1.2510     0.2460 c6         1 4RX       0.110700
      2 C6           1.0820    -0.1180     0.8610 c6         1 4RX      -0.079400
      3 C5           2.5920    -0.5050     0.8610 c6         1 4RX      -0.085700
      4 C4           3.1250    -0.8160    -0.5790 c6         1 4RX       0.138200
      5 C2           3.2660     1.5600    -1.0880 c2         1 4RX       0.701100
      6 C15         -6.0790    -1.3570     0.0300 ca         1 4RX      -0.111000
      7 C14         -4.7880    -1.9100     0.0860 ca         1 4RX      -0.057000
      8 C16         -6.2490     0.0370     0.0080 ca         1 4RX      -0.084000
      9 C18         -3.8310     0.3280     0.0960 ca         1 4RX      -0.083000
     10 C13         -3.6430    -1.0780     0.1200 ca         1 4RX      -0.142600
     11 C17         -5.1240     0.8750     0.0400 ca         1 4RX       0.109000
     12 C11         -2.2670    -1.7110     0.1790 c          1 4RX       0.613700
     13 C8           0.7300    -1.5840    -1.1820 c6         1 4RX      -0.094400
     14 C9           2.2400    -1.9510    -1.1820 c6         1 4RX      -0.048400
     15 C21          4.9670    -0.0080     1.5690 c6         1 4RX       0.156600
     16 C23          4.5990    -1.3350    -0.4290 c6         1 4RX       0.145600
     17 C20          3.5160     0.5530     1.5140 c6         1 4RX       0.044300
     18 N3           3.0950     0.3630    -1.4930 n2         1 4RX      -0.687900
     19 N24          3.2600     2.6060    -1.9360 nv         1 4RX      -1.008200
     20 N10         -1.1900    -0.8520     0.2110 ns         1 4RX      -0.496900
     21 O12         -2.1100    -2.9250     0.2000 o          1 4RX      -0.600100
     22 O22          5.4290    -0.3530     0.2410 os         1 4RX      -0.435000
     23 S1           3.4370     2.1410     0.5830 ss         1 4RX      -0.385200
     24 Cl1         -5.3350     2.6210     0.0120 cl         1 4RX      -0.198000
     25 H1           0.3170    -2.1480     0.8780 h1         1 4RX       0.076700
     26 H2           0.9130     0.8130     0.3030 hc         1 4RX       0.057700
     27 H3           0.7500     0.0750     1.8910 hc         1 4RX       0.057700
     28 H4           2.6790    -1.4230     1.4620 hc         1 4RX       0.064700
     29 H6          -4.6800    -2.9930     0.1030 ha         1 4RX       0.140000
     30 H7          -7.2470     0.4660    -0.0350 ha         1 4RX       0.131000
     31 H8          -2.9890     1.0130     0.1190 ha         1 4RX       0.129000
     32 H9           0.1530    -2.4230    -1.5950 hc         1 4RX       0.057700
     33 H10          0.5520    -0.7310    -1.8510 hc         1 4RX       0.057700
     34 H11          2.5650    -2.1760    -2.2070 hc         1 4RX       0.052200
     35 H12          2.3810    -2.8780    -0.6090 hc         1 4RX       0.052200
     36 H13          5.6430     0.7450     1.9980 h1         1 4RX       0.057700
     37 H14          5.0060    -0.9010     2.2100 h1         1 4RX       0.057700
     38 H15          4.6170    -2.2720     0.1480 h1         1 4RX       0.058700
     39 H16          5.0260    -1.5440    -1.4200 h1         1 4RX       0.058700
     40 H17          3.1830     0.7550     2.5420 h1         1 4RX       0.093700
     41 H18          3.7710     3.4020    -1.5790 hn         1 4RX       0.468000
     42 H19          3.4870     2.3360    -2.8840 hn         1 4RX       0.468000
     43 H20         -1.4010     0.1360     0.1910 hn         1 4RX       0.315500
     44 H5          -6.9490    -2.0100     0.0050 ha         1 4RX       0.123000
@<TRIPOS>BOND
     1     1     2 1   
     2     1    13 1   
     3     1    20 1   
     4     1    25 1   
     5     2     3 1   
     6     2    26 1   
     7     2    27 1   
     8     3     4 1   
     9     3    17 1   
    10     3    28 1   
    11     4    14 1   
    12     4    16 1   
    13     4    18 1   
    14     5    18 2   
    15     5    19 1   
    16     5    23 1   
    17     6     7 ar  
    18     6     8 ar  
    19     6    44 1   
    20     7    10 ar  
    21     7    29 1   
    22     8    11 ar  
    23     8    30 1   
    24     9    10 ar  
    25     9    11 ar  
    26     9    31 1   
    27    10    12 1   
    28    11    24 1   
    29    12    20 1   
    30    12    21 2   
    31    13    14 1   
    32    13    32 1   
    33    13    33 1   
    34    14    34 1   
    35    14    35 1   
    36    15    17 1   
    37    15    22 1   
    38    15    36 1   
    39    15    37 1   
    40    16    22 1   
    41    16    38 1   
    42    16    39 1   
    43    17    23 1   
    44    17    40 1   
    45    19    41 1   
    46    19    42 1   
    47    20    43 1   
@<TRIPOS>SUBSTRUCTURE
     1 4RX         1 TEMP              0 ****  ****    0 ROOT
