@<TRIPOS>MOLECULE
4RX
   44    47     1     0     0
SMALL
abcg2


@<TRIPOS>ATOM
      1 C7           0.2180    -1.1590     0.1930 c6         1 4RX       0.110700
      2 C6           1.0580    -0.0390     0.7990 c6         1 4RX      -0.079400
      3 C5           2.5240    -0.4510     0.8440 c6         1 4RX      -0.085700
      4 C4           3.0750    -0.8470    -0.5340 c6         1 4RX       0.138200
      5 C2           3.2980     1.4500    -1.1450 c2         1 4RX       0.701100
      6 C15         -5.9030    -1.3470    -0.3060 ca         1 4RX      -0.111000
      7 C14         -4.6160    -1.8510    -0.2030 ca         1 4RX      -0.057000
      8 C16         -6.1700    -0.0230     0.0080 ca         1 4RX      -0.084000
      9 C18         -3.8320     0.3060     0.5230 ca         1 4RX      -0.083000
     10 C13         -3.5710    -1.0230     0.1980 ca         1 4RX      -0.142600
     11 C17         -5.1270     0.7880     0.4250 ca         1 4RX       0.109000
     12 C11         -2.1980    -1.6150     0.3040 c          1 4RX       0.613700
     13 C8           0.7400    -1.5490    -1.1890 c6         1 4RX      -0.094400
     14 C9           2.2060    -1.9580    -1.1230 c6         1 4RX      -0.048400
     15 C21          4.8720    -0.0060     1.5320 c6         1 4RX       0.156600
     16 C23          4.5060    -1.3630    -0.3370 c6         1 4RX       0.145600
     17 C20          3.4660     0.5750     1.4600 c6         1 4RX       0.044300
     18 N3           3.1130     0.2440    -1.4820 n2         1 4RX      -0.687900
     19 N24          3.2960     2.4530    -2.0770 nv         1 4RX      -1.008200
     20 N10         -1.1750    -0.7590     0.1470 ns         1 4RX      -0.496900
     21 O12         -2.0520    -2.8090     0.5250 o          1 4RX      -0.600100
     22 O22          5.3340    -0.3950     0.2630 os         1 4RX      -0.435000
     23 S1           3.4480     2.1160     0.4960 ss         1 4RX      -0.385200
     24 CL1         -5.4460     2.4380     0.8450 cl         1 4RX      -0.198000
     25 H1           0.2810    -2.0310     0.8480 h1         1 4RX       0.076700
     26 H2           0.9270     0.8770     0.2140 hc         1 4RX       0.057700
     27 H3           0.7100     0.1790     1.8130 hc         1 4RX       0.057700
     28 H4           2.5900    -1.3420     1.4820 hc         1 4RX       0.064700
     29 H6          -4.4220    -2.8870    -0.4440 ha         1 4RX       0.140000
     30 H7          -7.1760     0.3690    -0.0660 ha         1 4RX       0.131000
     31 H8          -3.0470     0.9630     0.8740 ha         1 4RX       0.129000
     32 H9           0.1390    -2.3700    -1.5880 hc         1 4RX       0.057700
     33 H10          0.6220    -0.7030    -1.8720 hc         1 4RX       0.057700
     34 H11          2.5720    -2.2130    -2.1210 hc         1 4RX       0.052200
     35 H12          2.3040    -2.8590    -0.5070 hc         1 4RX       0.052200
     36 H13          5.5770     0.7260     1.9270 h1         1 4RX       0.057700
     37 H14          4.8530    -0.8620     2.2230 h1         1 4RX       0.057700
     38 H15          4.4800    -2.2810     0.2690 h1         1 4RX       0.058700
     39 H16          4.9490    -1.6110    -1.3030 h1         1 4RX       0.058700
     40 H17          3.1390     0.8580     2.4640 h1         1 4RX       0.093700
     41 H18          3.8500     3.2720    -1.8790 hn         1 4RX       0.468000
     42 H19          3.3890     2.1350    -3.0300 hn         1 4RX       0.468000
     43 H20         -1.3690     0.1670    -0.2010 hn         1 4RX       0.315500
     44 H5          -6.7100    -1.9900    -0.6300 ha         1 4RX       0.123000
@<TRIPOS>BOND
     1     1     2 1   
     2     1    13 1   
     3     1    20 1   
     4     1    25 1   
     5     2     3 1   
     6     2    26 1   
     7     2    27 1   
     8     3     4 1   
     9     3    17 1   
    10     3    28 1   
    11     4    14 1   
    12     4    16 1   
    13     4    18 1   
    14     5    18 2   
    15     5    19 1   
    16     5    23 1   
    17     6     7 ar  
    18     6     8 ar  
    19     6    44 1   
    20     7    10 ar  
    21     7    29 1   
    22     8    11 ar  
    23     8    30 1   
    24     9    10 ar  
    25     9    11 ar  
    26     9    31 1   
    27    10    12 1   
    28    11    24 1   
    29    12    20 1   
    30    12    21 2   
    31    13    14 1   
    32    13    32 1   
    33    13    33 1   
    34    14    34 1   
    35    14    35 1   
    36    15    17 1   
    37    15    22 1   
    38    15    36 1   
    39    15    37 1   
    40    16    22 1   
    41    16    38 1   
    42    16    39 1   
    43    17    23 1   
    44    17    40 1   
    45    19    41 1   
    46    19    42 1   
    47    20    43 1   
@<TRIPOS>SUBSTRUCTURE
     1 4RX         1 TEMP              0 ****  ****    0 ROOT
