@<TRIPOS>MOLECULE
4RY
   44    47     1     0     0
SMALL
abcg2


@<TRIPOS>ATOM
      1 C7          21.6200    54.6990    89.8110 c2         1 4RY       0.704100
      2 O2          20.3090    56.5080    86.0170 os         1 4RY      -0.463000
      3 C1          20.1550    55.3790    86.8840 c5         1 4RY       0.152600
      4 C5          21.6100    57.2270    88.7480 c6         1 4RY       0.071600
      5 C4          22.1690    56.4880    87.5250 c5         1 4RY      -0.101000
      6 C3          21.5680    57.1510    86.2760 c5         1 4RY       0.159600
      7 C19         30.4360    56.5770    85.8630 ca         1 4RY      -0.109000
      8 C18         29.0890    56.6590    85.5420 ca         1 4RY      -0.057000
      9 C20         30.8840    55.6540    86.8030 ca         1 4RY      -0.082000
     10 C23         28.6030    54.8950    87.1150 ca         1 4RY      -0.084000
     11 C17         28.1640    55.8260    86.1730 ca         1 4RY      -0.139600
     12 C21         29.9560    54.8220    87.4130 ca         1 4RY       0.114000
     13 C15         26.7190    55.9390    85.7810 c          1 4RY       0.611700
     14 C12         23.8210    54.2020    86.6120 c6         1 4RY      -0.088400
     15 C11         22.3190    54.2270    86.3690 c6         1 4RY      -0.055400
     16 C24         23.7010    56.5310    87.5500 c6         1 4RY      -0.077400
     17 C13         24.3800    55.6210    86.5290 c6         1 4RY       0.109700
     18 C10         21.5590    55.0570    87.4210 c5         1 4RY       0.148200
     19 N9          21.4810    54.2570    88.6280 n2         1 4RY      -0.690900
     20 N8          21.5050    53.8550    90.8910 nv         1 4RY      -1.014200
     21 N14         25.8210    55.6400    86.7370 ns         1 4RY      -0.501900
     22 O16         26.4050    56.2950    84.6420 o          1 4RY      -0.603100
     23 S6          21.9340    56.3800    90.3210 ss         1 4RY      -0.407200
     24 CL1         30.5050    53.6390    88.5820 cl         1 4RY      -0.207000
     25 H1          19.4750    55.6210    87.7060 h1         1 4RY       0.058700
     26 H2          19.7330    54.5510    86.3120 h1         1 4RY       0.058700
     27 H3          22.0850    58.2030    88.8420 h1         1 4RY       0.083700
     28 H4          20.5370    57.3830    88.6560 h1         1 4RY       0.083700
     29 H5          22.2150    57.0260    85.4050 h1         1 4RY       0.055200
     30 H6          21.3980    58.2200    86.4260 h1         1 4RY       0.055200
     31 H8          28.7410    57.3690    84.8050 ha         1 4RY       0.141000
     32 H9          31.9330    55.5780    87.0530 ha         1 4RY       0.133000
     33 H10         27.9150    54.2140    87.5960 ha         1 4RY       0.128000
     34 H11         24.0390    53.7840    87.6000 hc         1 4RY       0.052200
     35 H12         24.3180    53.5700    85.8720 hc         1 4RY       0.052200
     36 H13         22.1220    54.6360    85.3740 hc         1 4RY       0.061700
     37 H14         21.9050    53.2180    86.3900 hc         1 4RY       0.061700
     38 H15         24.0420    56.2390    88.5470 hc         1 4RY       0.055700
     39 H16         24.0290    57.5630    87.3960 hc         1 4RY       0.055700
     40 H17         24.2200    56.0020    85.5220 h1         1 4RY       0.087700
     41 H18         21.6570    52.8770    90.6880 hn         1 4RY       0.474500
     42 H19         21.8910    54.1650    91.7700 hn         1 4RY       0.474500
     43 H20         26.1550    55.4170    87.6620 hn         1 4RY       0.313500
     44 H7          31.1490    57.2320    85.3810 ha         1 4RY       0.125000
@<TRIPOS>BOND
     1     1    19 2   
     2     1    20 1   
     3     1    23 1   
     4     2     3 1   
     5     2     6 1   
     6     3    18 1   
     7     3    25 1   
     8     3    26 1   
     9     4     5 1   
    10     4    23 1   
    11     4    27 1   
    12     4    28 1   
    13     5     6 1   
    14     5    16 1   
    15     5    18 1   
    16     6    29 1   
    17     6    30 1   
    18     7     8 ar  
    19     7     9 ar  
    20     7    44 1   
    21     8    11 ar  
    22     8    31 1   
    23     9    12 ar  
    24     9    32 1   
    25    10    11 ar  
    26    10    12 ar  
    27    10    33 1   
    28    11    13 1   
    29    12    24 1   
    30    13    21 1   
    31    13    22 2   
    32    14    15 1   
    33    14    17 1   
    34    14    34 1   
    35    14    35 1   
    36    15    18 1   
    37    15    36 1   
    38    15    37 1   
    39    16    17 1   
    40    16    38 1   
    41    16    39 1   
    42    17    21 1   
    43    17    40 1   
    44    18    19 1   
    45    20    41 1   
    46    20    42 1   
    47    21    43 1   
@<TRIPOS>SUBSTRUCTURE
     1 4RY         1 TEMP              0 ****  ****    0 ROOT
