@<TRIPOS>MOLECULE
4RY
   44    47     1     0     0
SMALL
No Charge or Current Charge


@<TRIPOS>ATOM
      1 C7          21.6130    54.8670    89.8440 c2         1 4RY       0.704100
      2 O2          20.1810    56.5460    86.1420 os         1 4RY      -0.463000
      3 C1          20.0530    55.3900    87.0170 c5         1 4RY       0.152600
      4 C5          21.7030    57.3460    88.6160 c6         1 4RY       0.071600
      5 C4          22.1740    56.4400    87.4570 c5         1 4RY      -0.101000
      6 C3          21.5630    56.9880    86.1270 c5         1 4RY       0.159600
      7 C19         30.5030    56.7320    86.0730 ca         1 4RY      -0.109000
      8 C18         29.1340    56.9370    85.8270 ca         1 4RY      -0.057000
      9 C20         30.9260    55.6180    86.8160 ca         1 4RY      -0.082000
     10 C23         28.6080    54.9110    87.0690 ca         1 4RY      -0.084000
     11 C17         28.1650    56.0310    86.3200 ca         1 4RY      -0.139600
     12 C21         29.9780    54.7120    87.3120 ca         1 4RY       0.114000
     13 C15         26.6980    56.2870    86.0350 c          1 4RY       0.611700
     14 C12         23.7290    54.0240    86.5500 c6         1 4RY      -0.088400
     15 C11         22.1880    54.0580    86.3880 c6         1 4RY      -0.055400
     16 C24         23.7420    56.3930    87.4720 c6         1 4RY      -0.077400
     17 C13         24.3400    55.4400    86.3990 c6         1 4RY       0.109700
     18 C10         21.5150    55.0110    87.4300 c5         1 4RY       0.148200
     19 N9          21.4560    54.2450    88.7370 n2         1 4RY      -0.690900
     20 N8          21.5970    54.1850    91.0000 nv         1 4RY      -1.014200
     21 N14         25.8000    55.3700    86.5380 ns         1 4RY      -0.501900
     22 O16         26.3190    57.2550    85.3900 o          1 4RY      -0.603100
     23 S6          21.9960    56.5500    90.2220 ss         1 4RY      -0.407200
     24 Cl1         30.5070    53.3160    88.2430 cl         1 4RY      -0.207000
     25 H1          19.4440    55.6770    87.8840 h1         1 4RY       0.058700
     26 H2          19.5370    54.5760    86.4920 h1         1 4RY       0.058700
     27 H3          22.2210    58.3160    88.6010 h1         1 4RY       0.083700
     28 H4          20.6250    57.5480    88.5450 h1         1 4RY       0.083700
     29 H5          22.0510    56.5820    85.2310 h1         1 4RY       0.055200
     30 H6          21.6030    58.0830    86.0580 h1         1 4RY       0.055200
     31 H8          28.8280    57.8070    85.2490 ha         1 4RY       0.141000
     32 H9          31.9850    55.4580    87.0070 ha         1 4RY       0.133000
     33 H10         27.9080    54.1850    87.4720 ha         1 4RY       0.128000
     34 H11         23.9920    53.6010    87.5290 hc         1 4RY       0.052200
     35 H12         24.1600    53.3530    85.7950 hc         1 4RY       0.052200
     36 H13         21.9400    54.3610    85.3620 hc         1 4RY       0.061700
     37 H14         21.7820    53.0420    86.4920 hc         1 4RY       0.061700
     38 H15         24.1020    56.0670    88.4570 hc         1 4RY       0.055700
     39 H16         24.1420    57.4050    87.3240 hc         1 4RY       0.055700
     40 H17         24.1090    55.8220    85.3930 h1         1 4RY       0.087700
     41 H18         21.7820    53.2020    90.8550 hn         1 4RY       0.474500
     42 H19         22.1480    54.6250    91.7250 hn         1 4RY       0.474500
     43 H20         26.1890    54.5950    87.0570 hn         1 4RY       0.313500
     44 H7          31.2360    57.4370    85.6860 ha         1 4RY       0.125000
@<TRIPOS>BOND
     1     1    19 2   
     2     1    20 1   
     3     1    23 1   
     4     2     3 1   
     5     2     6 1   
     6     3    18 1   
     7     3    25 1   
     8     3    26 1   
     9     4     5 1   
    10     4    23 1   
    11     4    27 1   
    12     4    28 1   
    13     5     6 1   
    14     5    16 1   
    15     5    18 1   
    16     6    29 1   
    17     6    30 1   
    18     7     8 ar  
    19     7     9 ar  
    20     7    44 1   
    21     8    11 ar  
    22     8    31 1   
    23     9    12 ar  
    24     9    32 1   
    25    10    11 ar  
    26    10    12 ar  
    27    10    33 1   
    28    11    13 1   
    29    12    24 1   
    30    13    21 1   
    31    13    22 2   
    32    14    15 1   
    33    14    17 1   
    34    14    34 1   
    35    14    35 1   
    36    15    18 1   
    37    15    36 1   
    38    15    37 1   
    39    16    17 1   
    40    16    38 1   
    41    16    39 1   
    42    17    21 1   
    43    17    40 1   
    44    18    19 1   
    45    20    41 1   
    46    20    42 1   
    47    21    43 1   
@<TRIPOS>SUBSTRUCTURE
     1 4RY         1 TEMP              0 ****  ****    0 ROOT
