@<TRIPOS>MOLECULE
4RZ
   39    41     1     0     0
SMALL
No Charge or Current Charge


@<TRIPOS>ATOM
      1 O1          -1.8280    -2.0630     0.2930 o          1 4RZ      -0.599100
      2 C7           0.8410    -1.0080     0.3860 c6         1 4RZ       0.114700
      3 C6           1.2940    -1.5050    -1.0110 c6         1 4RZ      -0.094400
      4 C1           4.6150     0.8610    -0.9430 c2         1 4RZ       0.691100
      5 N1           4.1900    -0.2870    -1.2920 n2         1 4RZ      -0.692900
      6 C5           2.6620    -2.2340    -0.9370 c6         1 4RZ      -0.058400
      7 C4           3.7710    -1.3330    -0.3270 c6         1 4RZ       0.162500
      8 C3           3.3080    -0.8280     1.0730 c6         1 4RZ      -0.088700
      9 C2           4.4100     0.0320     1.7170 c6         1 4RZ       0.069600
     10 N2           4.9960     1.7850    -1.8430 nv         1 4RZ      -1.008200
     11 S1           4.8260     1.5010     0.6960 ss         1 4RZ      -0.408200
     12 N3          -0.4280    -0.2790     0.2890 ns         1 4RZ      -0.499900
     13 C8          -1.6810    -0.8490     0.2380 c          1 4RZ       0.612700
     14 C9          -2.8560     0.1000     0.1140 ca         1 4RZ      -0.142600
     15 C10         -4.1680    -0.4290     0.0580 ca         1 4RZ      -0.052000
     16 C11         -5.2810     0.4200    -0.0570 ca         1 4RZ       0.109000
     17 Cl1         -6.9010    -0.2620    -0.1250 cl         1 4RZ      -0.196000
     18 C12         -5.1060     1.8100    -0.1190 ca         1 4RZ      -0.085000
     19 C13         -3.8120     2.3520    -0.0650 ca         1 4RZ      -0.111000
     20 C14         -2.6930     1.5070     0.0510 ca         1 4RZ      -0.089000
     21 C15          1.9340    -0.0940     0.9970 c6         1 4RZ      -0.086400
     22 H1           0.6970    -1.8760     1.0470 h1         1 4RZ       0.074700
     23 H2           0.5390    -2.1860    -1.4270 hc         1 4RZ       0.058200
     24 H3           1.3620    -0.6570    -1.7070 hc         1 4RZ       0.058200
     25 H4           2.5550    -3.1430    -0.3280 hc         1 4RZ       0.052200
     26 H5           2.9610    -2.5730    -1.9380 hc         1 4RZ       0.052200
     27 H6           4.6500    -1.9770    -0.1750 h1         1 4RZ       0.058700
     28 H7           3.1750    -1.7090     1.7170 hc         1 4RZ       0.066700
     29 H8           4.1090     0.3710     2.7190 h1         1 4RZ       0.076200
     30 H9           5.3250    -0.5690     1.8250 h1         1 4RZ       0.076200
     31 H10          5.6620     2.4470    -1.4670 hn         1 4RZ       0.467500
     32 H11          5.2440     1.3800    -2.7360 hn         1 4RZ       0.467500
     33 H12         -0.3920     0.7300     0.2390 hn         1 4RZ       0.315500
     34 H13         -4.3310    -1.5040     0.1030 ha         1 4RZ       0.151000
     35 H14         -5.9690     2.4640    -0.2080 ha         1 4RZ       0.131000
     36 H15         -3.6740     3.4300    -0.1120 ha         1 4RZ       0.121000
     37 H16         -1.7080     1.9650     0.0900 ha         1 4RZ       0.117000
     38 H17          2.0200     0.8240     0.4000 hc         1 4RZ       0.054700
     39 H18          1.6270     0.2190     2.0050 hc         1 4RZ       0.054700
@<TRIPOS>BOND
     1     1    13 2   
     2     2     3 1   
     3     2    12 1   
     4     2    21 1   
     5     2    22 1   
     6     3     6 1   
     7     3    23 1   
     8     3    24 1   
     9     4     5 2   
    10     4    10 1   
    11     4    11 1   
    12     5     7 1   
    13     6     7 1   
    14     6    25 1   
    15     6    26 1   
    16     7     8 1   
    17     7    27 1   
    18     8     9 1   
    19     8    21 1   
    20     8    28 1   
    21     9    11 1   
    22     9    29 1   
    23     9    30 1   
    24    10    31 1   
    25    10    32 1   
    26    12    13 1   
    27    12    33 1   
    28    13    14 1   
    29    14    15 ar  
    30    14    20 ar  
    31    15    16 ar  
    32    15    34 1   
    33    16    17 1   
    34    16    18 ar  
    35    18    19 ar  
    36    18    35 1   
    37    19    20 ar  
    38    19    36 1   
    39    20    37 1   
    40    21    38 1   
    41    21    39 1   
@<TRIPOS>SUBSTRUCTURE
     1 4RZ         1 TEMP              0 ****  ****    0 ROOT
