@<TRIPOS>MOLECULE
4RZ
   39    41     1     0     0
SMALL
abcg2


@<TRIPOS>ATOM
      1 O1          -1.7830    -1.9940     0.4620 o          1 4RZ      -0.599100
      2 C7           0.8510    -0.9610     0.3550 c6         1 4RZ       0.114700
      3 C6           1.3180    -1.5430    -0.9770 c6         1 4RZ      -0.094400
      4 C1           4.5390     0.7340    -1.0310 c2         1 4RZ       0.691100
      5 N1           4.1270    -0.4390    -1.2620 n2         1 4RZ      -0.692900
      6 C5           2.6350    -2.2850    -0.7970 c6         1 4RZ      -0.058400
      7 C4           3.7280    -1.3770    -0.2360 c6         1 4RZ       0.162500
      8 C3           3.2600    -0.7460     1.0780 c6         1 4RZ      -0.088700
      9 C2           4.3390     0.1550     1.6540 c6         1 4RZ       0.069600
     10 N2           4.8270     1.5990    -2.0530 nv         1 4RZ      -1.008200
     11 S1           4.7300     1.5380     0.5440 ss         1 4RZ      -0.408200
     12 N3          -0.3940    -0.2260     0.2290 ns         1 4RZ      -0.499900
     13 C8          -1.6060    -0.7940     0.3000 c          1 4RZ       0.612700
     14 C9          -2.7700     0.1410     0.1740 ca         1 4RZ      -0.142600
     15 C10         -3.9580    -0.3710    -0.3370 ca         1 4RZ      -0.052000
     16 C11         -5.0610     0.4570    -0.4520 ca         1 4RZ       0.109000
     17 CL1         -6.5310    -0.1800    -1.1130 cl         1 4RZ      -0.196000
     18 C12         -5.0170     1.7820    -0.0460 ca         1 4RZ      -0.085000
     19 C13         -3.8350     2.2790     0.4820 ca         1 4RZ      -0.111000
     20 C14         -2.7140     1.4690     0.5900 ca         1 4RZ      -0.089000
     21 C15          1.9140    -0.0370     0.9410 c6         1 4RZ      -0.086400
     22 H1           0.6740    -1.7810     1.0560 h1         1 4RZ       0.074700
     23 H2           0.5560    -2.2130    -1.3790 hc         1 4RZ       0.058200
     24 H3           1.4480    -0.7320    -1.7020 hc         1 4RZ       0.058200
     25 H4           2.4930    -3.1300    -0.1170 hc         1 4RZ       0.052200
     26 H5           2.9690    -2.7020    -1.7500 hc         1 4RZ       0.052200
     27 H6           4.5950    -2.0110    -0.0080 h1         1 4RZ       0.058700
     28 H7           3.1390    -1.5650     1.7960 hc         1 4RZ       0.066700
     29 H8           4.0190     0.6120     2.5910 h1         1 4RZ       0.076200
     30 H9           5.2490    -0.4100     1.8530 h1         1 4RZ       0.076200
     31 H10          5.5320     2.3000    -1.8870 hn         1 4RZ       0.467500
     32 H11          4.9100     1.1610    -2.9580 hn         1 4RZ       0.467500
     33 H12         -0.3280     0.7410    -0.0480 hn         1 4RZ       0.315500
     34 H13         -4.0170    -1.4050    -0.6480 ha         1 4RZ       0.151000
     35 H14         -5.8880     2.4160    -0.1330 ha         1 4RZ       0.131000
     36 H15         -3.7930     3.3070     0.8180 ha         1 4RZ       0.121000
     37 H16         -1.8120     1.8780     1.0270 ha         1 4RZ       0.117000
     38 H17          2.0090     0.8470     0.3020 hc         1 4RZ       0.054700
     39 H18          1.5910     0.3200     1.9220 hc         1 4RZ       0.054700
@<TRIPOS>BOND
     1     1    13 2   
     2     2     3 1   
     3     2    12 1   
     4     2    21 1   
     5     2    22 1   
     6     3     6 1   
     7     3    23 1   
     8     3    24 1   
     9     4     5 2   
    10     4    10 1   
    11     4    11 1   
    12     5     7 1   
    13     6     7 1   
    14     6    25 1   
    15     6    26 1   
    16     7     8 1   
    17     7    27 1   
    18     8     9 1   
    19     8    21 1   
    20     8    28 1   
    21     9    11 1   
    22     9    29 1   
    23     9    30 1   
    24    10    31 1   
    25    10    32 1   
    26    12    13 1   
    27    12    33 1   
    28    13    14 1   
    29    14    15 ar  
    30    14    20 ar  
    31    15    16 ar  
    32    15    34 1   
    33    16    17 1   
    34    16    18 ar  
    35    18    19 ar  
    36    18    35 1   
    37    19    20 ar  
    38    19    36 1   
    39    20    37 1   
    40    21    38 1   
    41    21    39 1   
@<TRIPOS>SUBSTRUCTURE
     1 4RZ         1 TEMP              0 ****  ****    0 ROOT
