@<TRIPOS>MOLECULE
4S1
   54    57     1     0     0
SMALL
abcg2


@<TRIPOS>ATOM
      1 C01         -0.6980     0.3550     0.1450 ca         1 4S1       0.479900
      2 N02         -2.0230     0.3200     0.2250 nb         1 4S1      -0.348000
      3 C03         -2.6930     1.4700     0.2510 ca         1 4S1       0.442900
      4 N04         -2.1530     2.7000     0.1960 nb         1 4S1      -0.281000
      5 C05         -0.8400     2.7310     0.1160 ca         1 4S1       0.205900
      6 C06         -0.0130     1.6160     0.0880 ca         1 4S1      -0.396900
      7 N07         -0.0240    -0.7960     0.1340 nu         1 4S1      -0.904100
      8 N08         -4.0240     1.3850     0.3380 nu         1 4S1      -0.917100
      9 C09          1.4200     1.7360    -0.0040 cc         1 4S1       0.534800
     10 C10         -0.6140    -2.1070     0.1010 c5         1 4S1       0.233500
     11 C11         -0.5020    -2.7990    -1.2540 c5         1 4S1       0.103300
     12 C12         -0.9150    -4.2380    -0.9290 c5         1 4S1       0.139300
     13 C13         -0.3020    -4.4970     0.4600 c5         1 4S1      -0.069700
     14 C14          0.0790    -3.1100     1.0220 c5         1 4S1      -0.078400
     15 O15         -1.2960    -2.1700    -2.2230 oh         1 4S1      -0.639000
     16 O16         -2.3180    -4.3460    -0.8390 oh         1 4S1      -0.654000
     17 C17          0.8770    -5.4470     0.3830 c3         1 4S1       0.169600
     18 O18          1.3950    -5.6300     1.6810 oh         1 4S1      -0.657000
     19 C19         -4.9290     2.5110     0.3860 c3         1 4S1       0.240800
     20 C20         -6.3680     2.0180     0.4270 c3         1 4S1      -0.098400
     21 C21         -7.3640     3.1660     0.4660 c3         1 4S1      -0.086100
     22 S22          2.1960     3.3160    -0.1000 ss         1 4S1       0.004800
     23 C23          3.7380     2.5290    -0.1770 ca         1 4S1      -0.189000
     24 C24          3.5520     1.1390    -0.1240 ca         1 4S1       0.121400
     25 N25          2.2450     0.7360    -0.0280 nd         1 4S1      -0.621100
     26 C26          5.0010     3.0960    -0.2760 ca         1 4S1      -0.065000
     27 C27          6.0920     2.2430    -0.3230 ca         1 4S1      -0.111000
     28 C28          5.9210     0.8560    -0.2710 ca         1 4S1      -0.105000
     29 C29          4.6610     0.2950    -0.1720 ca         1 4S1      -0.073000
     30 H1          -0.4040     3.7270     0.0720 h4         1 4S1       0.017100
     31 H2           0.9860    -0.7130     0.0570 hn         1 4S1       0.535000
     32 H3          -4.4090     0.4550     0.3980 hn         1 4S1       0.507000
     33 H4          -1.6670    -2.0120     0.3660 h1         1 4S1       0.111700
     34 H5           0.5580    -2.8040    -1.5480 h1         1 4S1       0.038700
     35 H6          -0.5250    -4.9380    -1.6830 h1         1 4S1       0.035700
     36 H7          -1.0710    -4.9600     1.0860 hc         1 4S1       0.089700
     37 H8           1.1630    -2.9630     0.9660 hc         1 4S1       0.060700
     38 H9          -0.2050    -2.9790     2.0650 hc         1 4S1       0.060700
     39 H10         -1.0130    -2.4670    -3.0940 ho         1 4S1       0.442000
     40 H11         -2.6920    -3.8780    -1.5950 ho         1 4S1       0.457000
     41 H12          0.5470    -6.3980    -0.0580 h1         1 4S1       0.017700
     42 H13          1.6370    -5.0290    -0.2950 h1         1 4S1       0.017700
     43 H14          2.1920    -6.1630     1.6150 ho         1 4S1       0.444000
     44 H15         -4.7250     3.1300     1.2650 h1         1 4S1       0.053700
     45 H16         -4.7820     3.1510    -0.4890 h1         1 4S1       0.053700
     46 H17         -6.5580     1.3930    -0.4490 hc         1 4S1       0.044700
     47 H18         -6.5040     1.3780     1.3030 hc         1 4S1       0.044700
     48 H19         -8.3870     2.7930     0.4900 hc         1 4S1       0.037033
     49 H20         -7.2200     3.7900     1.3500 hc         1 4S1       0.037033
     50 H21         -7.2660     3.8070    -0.4110 hc         1 4S1       0.037033
     51 H22          5.1330     4.1690    -0.3160 ha         1 4S1       0.123000
     52 H23          7.0880     2.6570    -0.4010 ha         1 4S1       0.115000
     53 H24          6.7890     0.2110    -0.3090 ha         1 4S1       0.115000
     54 H25          4.5260    -0.7780    -0.1340 ha         1 4S1       0.125000
@<TRIPOS>BOND
     1     1     2 ar  
     2     1     6 ar  
     3     1     7 1   
     4     2     3 ar  
     5     3     4 ar  
     6     3     8 1   
     7     4     5 ar  
     8     5     6 ar  
     9     5    30 1   
    10     6     9 1   
    11     7    10 1   
    12     7    31 1   
    13     8    19 1   
    14     8    32 1   
    15     9    22 1   
    16     9    25 2   
    17    10    11 1   
    18    10    14 1   
    19    10    33 1   
    20    11    12 1   
    21    11    15 1   
    22    11    34 1   
    23    12    13 1   
    24    12    16 1   
    25    12    35 1   
    26    13    14 1   
    27    13    17 1   
    28    13    36 1   
    29    14    37 1   
    30    14    38 1   
    31    15    39 1   
    32    16    40 1   
    33    17    18 1   
    34    17    41 1   
    35    17    42 1   
    36    18    43 1   
    37    19    20 1   
    38    19    44 1   
    39    19    45 1   
    40    20    21 1   
    41    20    46 1   
    42    20    47 1   
    43    21    48 1   
    44    21    49 1   
    45    21    50 1   
    46    22    23 1   
    47    23    24 ar  
    48    23    26 ar  
    49    24    25 1   
    50    24    29 ar  
    51    26    27 ar  
    52    26    51 1   
    53    27    28 ar  
    54    27    52 1   
    55    28    29 ar  
    56    28    53 1   
    57    29    54 1   
@<TRIPOS>SUBSTRUCTURE
     1 4S1         1 TEMP              0 ****  ****    0 ROOT
