@<TRIPOS>MOLECULE
4S1
   54    57     1     0     0
SMALL
No Charge or Current Charge


@<TRIPOS>ATOM
      1 C01         -0.6490     0.3880     0.5230 ca         1 4S1       0.479900
      2 N02         -1.9640     0.2860     0.7660 nb         1 4S1      -0.348000
      3 C03         -2.7000     1.3700     0.5160 ca         1 4S1       0.442900
      4 N04         -2.2650     2.5480     0.0490 nb         1 4S1      -0.281000
      5 C05         -0.9460     2.6470    -0.1820 ca         1 4S1       0.205900
      6 C06         -0.0610     1.5790     0.0560 ca         1 4S1      -0.396900
      7 N07          0.1060    -0.7360     0.8070 nu         1 4S1      -0.904100
      8 N08         -4.0500     1.2290     0.7700 nu         1 4S1      -0.917100
      9 C09          1.3650     1.7370    -0.2470 cc         1 4S1       0.534800
     10 C10         -0.3290    -1.9020    -0.0180 c5         1 4S1       0.233500
     11 C11          0.9800    -2.5140    -0.6020 c5         1 4S1       0.103300
     12 C12          0.4960    -3.9560    -0.9740 c5         1 4S1       0.139300
     13 C13         -0.6510    -4.2670     0.0620 c5         1 4S1      -0.069700
     14 C14         -0.6870    -3.0120     0.9940 c5         1 4S1      -0.078400
     15 O15          1.5120    -1.8010    -1.7340 oh         1 4S1      -0.639000
     16 O16          0.0000    -3.9740    -2.3110 oh         1 4S1      -0.654000
     17 C17         -0.4770    -5.6130     0.8020 c3         1 4S1       0.169600
     18 O18         -1.5780    -5.8430     1.6880 oh         1 4S1      -0.657000
     19 C19         -5.1040     2.2400     0.5940 c3         1 4S1       0.240800
     20 C20         -6.4750     1.6630     0.9960 c3         1 4S1      -0.098400
     21 C21         -7.6250     2.6770     0.8340 c3         1 4S1      -0.086100
     22 S22          2.0960     3.3620    -0.3530 ss         1 4S1       0.004800
     23 C23          3.6030     2.5320    -0.6880 ca         1 4S1      -0.189000
     24 C24          3.4510     1.1620    -0.6940 ca         1 4S1       0.121400
     25 N25          2.1740     0.6810    -0.4420 nd         1 4S1      -0.621100
     26 C26          4.8420     3.1450    -0.9270 ca         1 4S1      -0.065000
     27 C27          5.9590     2.3260    -1.1800 ca         1 4S1      -0.111000
     28 C28          5.8170     0.9220    -1.1890 ca         1 4S1      -0.105000
     29 C29          4.5580     0.3360    -0.9440 ca         1 4S1      -0.073000
     30 H1          -0.6090     3.6050    -0.5750 h4         1 4S1       0.017100
     31 H2           1.0980    -0.4920     0.7580 hn         1 4S1       0.535000
     32 H3          -4.3250     0.3160     1.1310 hn         1 4S1       0.507000
     33 H4          -1.1030    -1.7180    -0.7820 h1         1 4S1       0.111700
     34 H5           1.7530    -2.5870     0.1780 h1         1 4S1       0.038700
     35 H6           1.3290    -4.6660    -0.8740 h1         1 4S1       0.035700
     36 H7          -1.6080    -4.3460    -0.4680 hc         1 4S1       0.089700
     37 H8           0.0440    -3.0910     1.8080 hc         1 4S1       0.060700
     38 H9          -1.6710    -2.8570     1.4520 hc         1 4S1       0.060700
     39 H10          1.7830    -0.9080    -1.4010 ho         1 4S1       0.442000
     40 H11          0.4730    -3.2210    -2.7410 ho         1 4S1       0.457000
     41 H12         -0.4140    -6.4210     0.0600 h1         1 4S1       0.017700
     42 H13          0.4670    -5.5960     1.3630 h1         1 4S1       0.017700
     43 H14         -1.4170    -6.7090     2.1250 ho         1 4S1       0.444000
     44 H15         -4.8860     3.1220     1.2130 h1         1 4S1       0.053700
     45 H16         -5.1420     2.5660    -0.4550 h1         1 4S1       0.053700
     46 H17         -6.6920     0.7790     0.3840 hc         1 4S1       0.044700
     47 H18         -6.4390     1.3330     2.0420 hc         1 4S1       0.044700
     48 H19         -8.5790     2.2240     1.1310 hc         1 4S1       0.037033
     49 H20         -7.4560     3.5610     1.4610 hc         1 4S1       0.037033
     50 H21         -7.7110     3.0030    -0.2100 hc         1 4S1       0.037033
     51 H22          4.9400     4.2290    -0.9180 ha         1 4S1       0.123000
     52 H23          6.9310     2.7760    -1.3690 ha         1 4S1       0.115000
     53 H24          6.6810     0.2900    -1.3840 ha         1 4S1       0.115000
     54 H25          4.4450    -0.7450    -0.9490 ha         1 4S1       0.125000
@<TRIPOS>BOND
     1     1     2 ar  
     2     1     6 ar  
     3     1     7 1   
     4     2     3 ar  
     5     3     4 ar  
     6     3     8 1   
     7     4     5 ar  
     8     5     6 ar  
     9     5    30 1   
    10     6     9 1   
    11     7    10 1   
    12     7    31 1   
    13     8    19 1   
    14     8    32 1   
    15     9    22 1   
    16     9    25 2   
    17    10    11 1   
    18    10    14 1   
    19    10    33 1   
    20    11    12 1   
    21    11    15 1   
    22    11    34 1   
    23    12    13 1   
    24    12    16 1   
    25    12    35 1   
    26    13    14 1   
    27    13    17 1   
    28    13    36 1   
    29    14    37 1   
    30    14    38 1   
    31    15    39 1   
    32    16    40 1   
    33    17    18 1   
    34    17    41 1   
    35    17    42 1   
    36    18    43 1   
    37    19    20 1   
    38    19    44 1   
    39    19    45 1   
    40    20    21 1   
    41    20    46 1   
    42    20    47 1   
    43    21    48 1   
    44    21    49 1   
    45    21    50 1   
    46    22    23 1   
    47    23    24 ar  
    48    23    26 ar  
    49    24    25 1   
    50    24    29 ar  
    51    26    27 ar  
    52    26    51 1   
    53    27    28 ar  
    54    27    52 1   
    55    28    29 ar  
    56    28    53 1   
    57    29    54 1   
@<TRIPOS>SUBSTRUCTURE
     1 4S1         1 TEMP              0 ****  ****    0 ROOT
