@<TRIPOS>MOLECULE
4S2
   53    57     1     0     0
SMALL
abcg2


@<TRIPOS>ATOM
      1 C01         -0.5340     0.8810    -0.0350 cc         1 4S2       0.537600
      2 N02         -1.7390     1.4750    -0.0200 nc         1 4S2      -0.772300
      3 C03         -1.8020     2.7770     0.0420 cd         1 4S2       0.778800
      4 N04         -0.6950     3.5590     0.0770 ns         1 4S2      -0.445400
      5 C05          0.5920     3.0460     0.0470 c          1 4S2       0.601200
      6 C06          0.6810     1.6260    -0.0080 cd         1 4S2      -0.497800
      7 N07         -0.5170    -0.4470    -0.0670 nu         1 4S2      -0.775200
      8 N08         -2.9890     3.3890     0.0800 nu         1 4S2      -0.878400
      9 O09          1.5450     3.8210     0.0720 o          1 4S2      -0.569000
     10 C10          1.9740     1.0130    -0.0360 cd         1 4S2       0.543500
     11 C11         -1.6710    -1.3060    -0.1120 c5         1 4S2       0.229500
     12 C12         -1.7720    -2.1110    -1.4020 c5         1 4S2       0.105300
     13 C13         -2.8440    -3.1520    -1.0630 c5         1 4S2       0.139300
     14 C14         -2.5370    -3.5380     0.3940 c5         1 4S2      -0.068700
     15 C15         -1.6460    -2.4040     0.9530 c5         1 4S2      -0.081400
     16 O16         -2.0850    -1.2910    -2.4950 oh         1 4S2      -0.644000
     17 O17         -4.1290    -2.5770    -1.1250 oh         1 4S2      -0.656000
     18 C18         -1.8740    -4.9010     0.4760 c3         1 4S2       0.168600
     19 O19         -1.5860    -5.1850     1.8250 oh         1 4S2      -0.657000
     20 C20         -4.2210     2.6750    -0.0080 cx         1 4S2       0.173500
     21 C21         -5.3550     3.1570     0.8370 cx         1 4S2      -0.126400
     22 C22         -4.6730     1.8650     1.1610 cx         1 4S2      -0.126400
     23 S23          3.4540     1.9740    -0.0030 ss         1 4S2       0.105800
     24 C24          4.3750     0.5040    -0.0650 ca         1 4S2      -0.229000
     25 C25          3.5070    -0.5960    -0.1050 ca         1 4S2       0.130400
     26 N26          2.1760    -0.2740    -0.0860 nc         1 4S2      -0.663100
     27 C27          5.7550     0.3390    -0.0800 ca         1 4S2      -0.061000
     28 C28          6.2600    -0.9500    -0.1360 ca         1 4S2      -0.123000
     29 C29          5.4030    -2.0540    -0.1750 ca         1 4S2      -0.107000
     30 C30          4.0290    -1.8890    -0.1600 ca         1 4S2      -0.084000
     31 H1          -0.7840     4.5660     0.1240 hn         1 4S2       0.327500
     32 H3          -3.0180     4.3950     0.0170 hn         1 4S2       0.503000
     33 H4          -2.5600    -0.6830    -0.0080 h1         1 4S2       0.110700
     34 H5          -0.8180    -2.6360    -1.5600 h1         1 4S2       0.044700
     35 H6          -2.7770    -4.0190    -1.7380 h1         1 4S2       0.038700
     36 H7          -3.4810    -3.5860     0.9440 hc         1 4S2       0.088700
     37 H8          -0.6180    -2.7560     1.0880 hc         1 4S2       0.063200
     38 H9          -1.9810    -2.0410     1.9230 hc         1 4S2       0.063200
     39 H10         -1.8970    -1.7740    -3.3060 ho         1 4S2       0.445000
     40 H11         -4.1680    -2.0430    -1.9270 ho         1 4S2       0.456000
     41 H12         -2.5470    -5.6530     0.0420 h1         1 4S2       0.017700
     42 H13         -0.9620    -4.9010    -0.1390 h1         1 4S2       0.017700
     43 H14         -1.0880    -6.0070     1.8600 ho         1 4S2       0.445000
     44 H15         -4.4600     2.2930    -0.9950 h1         1 4S2       0.095700
     45 H16         -5.1730     4.0020     1.4900 hc         1 4S2       0.082200
     46 H17         -6.3460     3.1310     0.4030 hc         1 4S2       0.082200
     47 H18         -5.1840     0.9350     0.9490 hc         1 4S2       0.082200
     48 H19         -4.0240     1.8350     2.0260 hc         1 4S2       0.082200
     49 H20          6.4210     1.1920    -0.0490 ha         1 4S2       0.119000
     50 H21          7.3320    -1.1010    -0.1480 ha         1 4S2       0.110000
     51 H22          5.8200    -3.0510    -0.2200 ha         1 4S2       0.109000
     52 H23          3.3620    -2.7400    -0.1920 ha         1 4S2       0.117000
     53 H2           0.4120    -0.8680    -0.0830 hn         1 4S2       0.549000
@<TRIPOS>BOND
     1     1     2 1   
     2     1     6 2   
     3     1     7 1   
     4     2     3 2   
     5     3     4 1   
     6     3     8 1   
     7     4     5 1   
     8     4    31 1   
     9     5     6 1   
    10     5     9 2   
    11     6    10 1   
    12     7    11 1   
    13     7    53 1   
    14     8    20 1   
    15     8    32 1   
    16    10    23 1   
    17    10    26 2   
    18    11    12 1   
    19    11    15 1   
    20    11    33 1   
    21    12    13 1   
    22    12    16 1   
    23    12    34 1   
    24    13    14 1   
    25    13    17 1   
    26    13    35 1   
    27    14    15 1   
    28    14    18 1   
    29    14    36 1   
    30    15    37 1   
    31    15    38 1   
    32    16    39 1   
    33    17    40 1   
    34    18    19 1   
    35    18    41 1   
    36    18    42 1   
    37    19    43 1   
    38    20    21 1   
    39    20    22 1   
    40    20    44 1   
    41    21    22 1   
    42    21    45 1   
    43    21    46 1   
    44    22    47 1   
    45    22    48 1   
    46    23    24 1   
    47    24    25 ar  
    48    24    27 ar  
    49    25    26 1   
    50    25    30 ar  
    51    27    28 ar  
    52    27    49 1   
    53    28    29 ar  
    54    28    50 1   
    55    29    30 ar  
    56    29    51 1   
    57    30    52 1   
@<TRIPOS>SUBSTRUCTURE
     1 4S2         1 TEMP              0 ****  ****    0 ROOT
