@<TRIPOS>MOLECULE
4S2
   53    57     1     0     0
SMALL
No Charge or Current Charge


@<TRIPOS>ATOM
      1 C01         -0.3750     0.8370    -0.2510 cc         1 4S2       0.537600
      2 N02         -1.6350     1.3470    -0.3510 nc         1 4S2      -0.772300
      3 C03         -1.7310     2.6450    -0.2990 cd         1 4S2       0.778800
      4 N04         -0.7110     3.4850    -0.1830 ns         1 4S2      -0.445400
      5 C05          0.5650     3.0950    -0.1020 c          1 4S2       0.601200
      6 C06          0.7550     1.6370    -0.1410 cd         1 4S2      -0.497800
      7 N07         -0.4100    -0.5200    -0.3220 nu         1 4S2      -0.775200
      8 N08         -2.9690     3.1820    -0.3720 nu         1 4S2      -0.878400
      9 O09          1.4410     3.9320    -0.0040 o          1 4S2      -0.569000
     10 C10          2.0860     1.0310    -0.0580 cd         1 4S2       0.543500
     11 C11         -1.5260    -1.3620     0.1880 c5         1 4S2       0.229500
     12 C12         -2.3970    -1.7040    -1.0540 c5         1 4S2       0.105300
     13 C13         -3.1800    -2.9620    -0.5470 c5         1 4S2       0.139300
     14 C14         -2.2130    -3.6220     0.5100 c5         1 4S2      -0.068700
     15 C15         -0.9120    -2.7550     0.4450 c5         1 4S2      -0.081400
     16 O16         -3.2520    -0.6220    -1.4420 oh         1 4S2      -0.644000
     17 O17         -4.4090    -2.5650     0.0580 oh         1 4S2      -0.656000
     18 C18         -1.9910    -5.1370     0.2930 c3         1 4S2       0.168600
     19 O19         -1.1370    -5.6670     1.3130 oh         1 4S2      -0.657000
     20 C20         -4.2180     2.4820    -0.5030 cx         1 4S2       0.173500
     21 C21         -5.4350     3.1180     0.1200 cx         1 4S2      -0.126400
     22 C22         -4.8200     1.8920     0.7470 cx         1 4S2      -0.126400
     23 S23          3.5900     2.0140     0.0830 ss         1 4S2       0.105800
     24 C24          4.4680     0.5030     0.1120 ca         1 4S2      -0.229000
     25 C25          3.6180    -0.5770     0.0190 ca         1 4S2       0.130400
     26 N26          2.2590    -0.3090    -0.0790 nc         1 4S2      -0.663100
     27 C27          5.8610     0.3590     0.2160 ca         1 4S2      -0.061000
     28 C28          6.4010    -0.9400     0.2250 ca         1 4S2      -0.123000
     29 C29          5.5460    -2.0580     0.1300 ca         1 4S2      -0.107000
     30 C30          4.1520    -1.8770     0.0270 ca         1 4S2      -0.084000
     31 H1          -0.8680     4.4770    -0.1510 hn         1 4S2       0.327500
     32 H3          -2.9600     4.1970    -0.3700 hn         1 4S2       0.503000
     33 H4          -2.0900    -0.9530     1.0420 h1         1 4S2       0.110700
     34 H5          -1.7580    -1.9890    -1.9020 h1         1 4S2       0.044700
     35 H6          -3.3770    -3.6410    -1.3880 h1         1 4S2       0.038700
     36 H7          -2.6520    -3.5320     1.5110 hc         1 4S2       0.088700
     37 H8          -0.2510    -3.0850    -0.3670 hc         1 4S2       0.063200
     38 H9          -0.3360    -2.7950     1.3770 hc         1 4S2       0.063200
     39 H10         -2.7400     0.1870    -1.1580 ho         1 4S2       0.445000
     40 H11         -4.6090    -1.7000    -0.3730 ho         1 4S2       0.456000
     41 H12         -2.9640    -5.6450     0.3120 h1         1 4S2       0.017700
     42 H13         -1.5460    -5.2970    -0.6980 h1         1 4S2       0.017700
     43 H14         -1.0370    -6.6280     1.1300 ho         1 4S2       0.445000
     44 H15         -4.3540     1.9390    -1.4420 h1         1 4S2       0.095700
     45 H16         -5.3130     4.0660     0.6400 hc         1 4S2       0.082200
     46 H17         -6.3830     3.0020    -0.3980 hc         1 4S2       0.082200
     47 H18         -5.3510     0.9490     0.6490 hc         1 4S2       0.082200
     48 H19         -4.2750     2.0130     1.6790 hc         1 4S2       0.082200
     49 H20          6.5090     1.2300     0.2880 ha         1 4S2       0.119000
     50 H21          7.4760    -1.0820     0.3040 ha         1 4S2       0.110000
     51 H22          5.9630    -3.0630     0.1370 ha         1 4S2       0.109000
     52 H23          3.4920    -2.7370    -0.0450 ha         1 4S2       0.117000
     53 H2           0.5480    -0.8790    -0.2730 hn         1 4S2       0.549000
@<TRIPOS>BOND
     1     1     2 1   
     2     1     6 2   
     3     1     7 1   
     4     2     3 2   
     5     3     4 1   
     6     3     8 1   
     7     4     5 1   
     8     4    31 1   
     9     5     6 1   
    10     5     9 2   
    11     6    10 1   
    12     7    11 1   
    13     7    53 1   
    14     8    20 1   
    15     8    32 1   
    16    10    23 1   
    17    10    26 2   
    18    11    12 1   
    19    11    15 1   
    20    11    33 1   
    21    12    13 1   
    22    12    16 1   
    23    12    34 1   
    24    13    14 1   
    25    13    17 1   
    26    13    35 1   
    27    14    15 1   
    28    14    18 1   
    29    14    36 1   
    30    15    37 1   
    31    15    38 1   
    32    16    39 1   
    33    17    40 1   
    34    18    19 1   
    35    18    41 1   
    36    18    42 1   
    37    19    43 1   
    38    20    21 1   
    39    20    22 1   
    40    20    44 1   
    41    21    22 1   
    42    21    45 1   
    43    21    46 1   
    44    22    47 1   
    45    22    48 1   
    46    23    24 1   
    47    24    25 ar  
    48    24    27 ar  
    49    25    26 1   
    50    25    30 ar  
    51    27    28 ar  
    52    27    49 1   
    53    28    29 ar  
    54    28    50 1   
    55    29    30 ar  
    56    29    51 1   
    57    30    52 1   
@<TRIPOS>SUBSTRUCTURE
     1 4S2         1 TEMP              0 ****  ****    0 ROOT
