@<TRIPOS>MOLECULE
4S3
   53    57     1     0     0
SMALL
No Charge or Current Charge


@<TRIPOS>ATOM
      1 C01         -0.4180     0.0430    -0.0200 cc         1 4S3       0.532600
      2 N02         -1.7730     0.1180    -0.1090 nc         1 4S3      -0.805300
      3 C03         -2.2550     1.2430    -0.5590 cd         1 4S3       0.793800
      4 N04         -1.5330     2.2930    -0.9270 ns         1 4S3      -0.443400
      5 C05         -0.2000     2.3310    -0.8780 c          1 4S3       0.599200
      6 C06          0.4200     1.0950    -0.3730 cd         1 4S3      -0.493800
      7 N07         -0.0440    -1.1610     0.4880 nu         1 4S3      -0.782200
      8 N08         -3.6340     1.3640    -0.6680 nh         1 4S3      -0.762600
      9 O09          0.3840     3.3350    -1.2390 o          1 4S3      -0.566000
     10 C10          1.8730     0.9550    -0.2510 cd         1 4S3       0.539500
     11 C11         -0.7940    -2.4300     0.3740 c6         1 4S3       0.201500
     12 C12         -0.8780    -2.9140    -1.1130 c6         1 4S3       0.135800
     13 N13         -1.5100    -4.2620    -1.2460 n7         1 4S3      -0.844400
     14 C14         -0.8190    -5.2950    -0.4370 c6         1 4S3       0.146800
     15 C15         -0.7690    -4.8890     1.0570 c6         1 4S3      -0.111400
     16 C16         -0.0920    -3.5060     1.2410 c6         1 4S3      -0.091400
     17 C17         -4.3350     2.5290    -0.0360 c6         1 4S3       0.187800
     18 C18         -5.0050     2.1190     1.3100 c6         1 4S3       0.133100
     19 O19         -5.8670     0.9690     1.1260 os         1 4S3      -0.438000
     20 C20         -5.1610    -0.1860     0.6100 c6         1 4S3       0.133100
     21 C21         -4.5090     0.1470    -0.7630 c6         1 4S3       0.187800
     22 S22          3.0100     2.2860    -0.6790 ss         1 4S3       0.103800
     23 C23          4.3060     1.2030    -0.2300 ca         1 4S3      -0.228000
     24 C24          3.8220    -0.0180     0.1880 ca         1 4S3       0.128400
     25 N25          2.4440    -0.1880     0.1870 nc         1 4S3      -0.658100
     26 C26          5.6780     1.4940    -0.2730 ca         1 4S3      -0.062000
     27 C27          6.5880     0.4980     0.1260 ca         1 4S3      -0.121000
     28 C28          6.1120    -0.7580     0.5570 ca         1 4S3      -0.107000
     29 C29          4.7260    -1.0160     0.5880 ca         1 4S3      -0.082000
     30 H1          -1.9980     3.1040    -1.2940 hn         1 4S3       0.329500
     31 H2           0.9760    -1.2090     0.5510 hn         1 4S3       0.554000
     32 H3          -1.8180    -2.3070     0.7580 h1         1 4S3       0.066700
     33 H4          -1.4490    -2.1830    -1.7030 h1         1 4S3       0.063200
     34 H5           0.1380    -2.9480    -1.5350 h1         1 4S3       0.063200
     35 H6          -2.4830    -4.1970    -0.9220 hn         1 4S3       0.402000
     36 H8          -1.3410    -6.2590    -0.5410 h1         1 4S3       0.054700
     37 H9           0.2060    -5.4330    -0.8130 h1         1 4S3       0.054700
     38 H10         -1.7880    -4.8620     1.4680 hc         1 4S3       0.046200
     39 H11         -0.2230    -5.6510     1.6290 hc         1 4S3       0.046200
     40 H12          0.9680    -3.5820     0.9610 hc         1 4S3       0.053200
     41 H13         -0.1200    -3.2140     2.2990 hc         1 4S3       0.053200
     42 H14         -3.6460     3.3640     0.1580 h1         1 4S3       0.070700
     43 H15         -5.1120     2.9110    -0.7160 h1         1 4S3       0.070700
     44 H16         -4.2310     1.8760     2.0520 h1         1 4S3       0.060700
     45 H17         -5.6000     2.9560     1.7010 h1         1 4S3       0.060700
     46 H18         -4.3860    -0.4910     1.3280 h1         1 4S3       0.060700
     47 H19         -5.8680    -1.0190     0.4950 h1         1 4S3       0.060700
     48 H20         -5.3100     0.3250    -1.4950 h1         1 4S3       0.070700
     49 H21         -3.9530    -0.7300    -1.1240 h1         1 4S3       0.070700
     50 H22          6.0330     2.4670    -0.6080 ha         1 4S3       0.119000
     51 H23          7.6570     0.6970     0.1030 ha         1 4S3       0.111000
     52 H24          6.8140    -1.5280     0.8660 ha         1 4S3       0.110000
     53 H25          4.3570    -1.9830     0.9190 ha         1 4S3       0.119000
@<TRIPOS>BOND
     1     1     2 1   
     2     1     6 2   
     3     1     7 1   
     4     2     3 2   
     5     3     4 1   
     6     3     8 1   
     7     4     5 1   
     8     4    30 1   
     9     5     6 1   
    10     5     9 2   
    11     6    10 1   
    12     7    11 1   
    13     7    31 1   
    14     8    17 1   
    15     8    21 1   
    16    10    22 1   
    17    10    25 2   
    18    11    12 1   
    19    11    16 1   
    20    11    32 1   
    21    12    13 1   
    22    12    33 1   
    23    12    34 1   
    24    13    14 1   
    25    13    35 1   
    26    14    15 1   
    27    14    36 1   
    28    14    37 1   
    29    15    16 1   
    30    15    38 1   
    31    15    39 1   
    32    16    40 1   
    33    16    41 1   
    34    17    18 1   
    35    17    42 1   
    36    17    43 1   
    37    18    19 1   
    38    18    44 1   
    39    18    45 1   
    40    19    20 1   
    41    20    21 1   
    42    20    46 1   
    43    20    47 1   
    44    21    48 1   
    45    21    49 1   
    46    22    23 1   
    47    23    24 ar  
    48    23    26 ar  
    49    24    25 1   
    50    24    29 ar  
    51    26    27 ar  
    52    26    50 1   
    53    27    28 ar  
    54    27    51 1   
    55    28    29 ar  
    56    28    52 1   
    57    29    53 1   
@<TRIPOS>SUBSTRUCTURE
     1 4S3         1 TEMP              0 ****  ****    0 ROOT
