@<TRIPOS>MOLECULE
4S3
   53    57     1     0     0
SMALL
abcg2


@<TRIPOS>ATOM
      1 C01         -0.3400    -0.1510    -0.1190 cc         1 4S3       0.532600
      2 N02         -1.6760    -0.0470    -0.1620 nc         1 4S3      -0.805300
      3 C03         -2.2340     1.1310    -0.3040 cd         1 4S3       0.793800
      4 N04         -1.4860     2.2540    -0.4330 ns         1 4S3      -0.443400
      5 C05         -0.0970     2.2560    -0.3860 c          1 4S3       0.599200
      6 C06          0.5140     0.9850    -0.2090 cd         1 4S3      -0.493800
      7 N07          0.1550    -1.3760     0.0320 nu         1 4S3      -0.782200
      8 N08         -3.5680     1.2250    -0.3290 nh         1 4S3      -0.762600
      9 O09          0.4950     3.3260    -0.5010 o          1 4S3      -0.566000
     10 C10          1.9400     0.9020    -0.1250 cd         1 4S3       0.539500
     11 C11         -0.6420    -2.5770     0.1700 c6         1 4S3       0.201500
     12 C12         -1.0900    -3.1250    -1.1920 c6         1 4S3       0.135800
     13 N13         -1.8320    -4.3670    -1.0970 n7         1 4S3      -0.844400
     14 C14         -1.1070    -5.3870    -0.3550 c6         1 4S3       0.146800
     15 C15         -0.6460    -4.9300     1.0260 c6         1 4S3      -0.111400
     16 C16          0.1550    -3.6360     0.9240 c6         1 4S3      -0.091400
     17 C17         -4.3380     2.4590    -0.3530 c6         1 4S3       0.187800
     18 C18         -5.3400     2.4490     0.7920 c6         1 4S3       0.133100
     19 O19         -6.1670     1.3100     0.7550 os         1 4S3      -0.438000
     20 C20         -5.4040     0.1250     0.8250 c6         1 4S3       0.133100
     21 C21         -4.4130     0.0390    -0.3210 c6         1 4S3       0.187800
     22 S22          2.9570     2.3410    -0.2220 ss         1 4S3       0.103800
     23 C23          4.3530     1.3310    -0.0200 ca         1 4S3      -0.228000
     24 C24          3.9550    -0.0080     0.0970 ca         1 4S3       0.128400
     25 N25          2.6020    -0.2100     0.0320 nc         1 4S3      -0.658100
     26 C26          5.6930     1.6970     0.0300 ca         1 4S3      -0.062000
     27 C27          6.6390     0.6990     0.2010 ca         1 4S3      -0.121000
     28 C28          6.2520    -0.6400     0.3190 ca         1 4S3      -0.107000
     29 C29          4.9180    -1.0040     0.2680 ca         1 4S3      -0.082000
     30 H1          -1.9120     3.1510    -0.6140 hn         1 4S3       0.329500
     31 H2           1.1700    -1.4420     0.0560 hn         1 4S3       0.554000
     32 H3          -1.5380    -2.3300     0.7490 h1         1 4S3       0.066700
     33 H4          -1.7040    -2.3820    -1.7060 h1         1 4S3       0.063200
     34 H5          -0.2030    -3.2920    -1.8150 h1         1 4S3       0.063200
     35 H6          -2.7200    -4.1910    -0.6400 hn         1 4S3       0.402000
     36 H8          -1.7380    -6.2740    -0.2740 h1         1 4S3       0.054700
     37 H9          -0.2320    -5.6780    -0.9470 h1         1 4S3       0.054700
     38 H10         -1.5180    -4.7760     1.6710 hc         1 4S3       0.046200
     39 H11         -0.0430    -5.7090     1.4990 hc         1 4S3       0.046200
     40 H12          1.0940    -3.8340     0.3940 hc         1 4S3       0.053200
     41 H13          0.4240    -3.2660     1.9170 hc         1 4S3       0.053200
     42 H14         -3.7120     3.3410    -0.2430 h1         1 4S3       0.070700
     43 H15         -4.8540     2.5390    -1.3140 h1         1 4S3       0.070700
     44 H16         -4.7950     2.5020     1.7440 h1         1 4S3       0.060700
     45 H17         -5.9820     3.3270     0.7190 h1         1 4S3       0.060700
     46 H18         -4.8630     0.0700     1.7800 h1         1 4S3       0.060700
     47 H19         -6.0960    -0.7160     0.7760 h1         1 4S3       0.060700
     48 H20         -4.9460    -0.0120    -1.2760 h1         1 4S3       0.070700
     49 H21         -3.7990    -0.8510    -0.2250 h1         1 4S3       0.070700
     50 H22          5.9920     2.7330    -0.0620 ha         1 4S3       0.119000
     51 H23          7.6880     0.9590     0.2430 ha         1 4S3       0.111000
     52 H24          7.0080    -1.4020     0.4520 ha         1 4S3       0.110000
     53 H25          4.6170    -2.0390     0.3610 ha         1 4S3       0.119000
@<TRIPOS>BOND
     1     1     2 1   
     2     1     6 2   
     3     1     7 1   
     4     2     3 2   
     5     3     4 1   
     6     3     8 1   
     7     4     5 1   
     8     4    30 1   
     9     5     6 1   
    10     5     9 2   
    11     6    10 1   
    12     7    11 1   
    13     7    31 1   
    14     8    17 1   
    15     8    21 1   
    16    10    22 1   
    17    10    25 2   
    18    11    12 1   
    19    11    16 1   
    20    11    32 1   
    21    12    13 1   
    22    12    33 1   
    23    12    34 1   
    24    13    14 1   
    25    13    35 1   
    26    14    15 1   
    27    14    36 1   
    28    14    37 1   
    29    15    16 1   
    30    15    38 1   
    31    15    39 1   
    32    16    40 1   
    33    16    41 1   
    34    17    18 1   
    35    17    42 1   
    36    17    43 1   
    37    18    19 1   
    38    18    44 1   
    39    18    45 1   
    40    19    20 1   
    41    20    21 1   
    42    20    46 1   
    43    20    47 1   
    44    21    48 1   
    45    21    49 1   
    46    22    23 1   
    47    23    24 ar  
    48    23    26 ar  
    49    24    25 1   
    50    24    29 ar  
    51    26    27 ar  
    52    26    50 1   
    53    27    28 ar  
    54    27    51 1   
    55    28    29 ar  
    56    28    52 1   
    57    29    53 1   
@<TRIPOS>SUBSTRUCTURE
     1 4S3         1 TEMP              0 ****  ****    0 ROOT
