@<TRIPOS>MOLECULE
4S4
   33    34     1     0     0
SMALL
bcc


@<TRIPOS>ATOM
      1 C2           0.5770     1.0200     0.2710 c          1 4S4       0.710700
      2 C4          -1.8310     0.4460     0.0650 ca         1 4S4       0.059600
      3 C5          -2.3910     1.5790     0.6570 ca         1 4S4      -0.181500
      4 C6          -3.7680     1.7180     0.7030 ca         1 4S4      -0.068000
      5 C7          -4.6240     0.7500     0.1880 ca         1 4S4      -0.143600
      6 C8          -4.0550    -0.3770    -0.4030 ca         1 4S4      -0.068000
      7 C17          1.9170     0.4350     0.1150 cc         1 4S4      -0.180900
      8 C18          3.0960     1.1360    -0.0020 cd         1 4S4      -0.094000
      9 C19          4.1220     0.1870    -0.1510 cd         1 4S4      -0.083900
     10 C21          3.5410    -1.0610    -0.1120 cc         1 4S4      -0.038200
     11 O1           0.4550     2.1760     0.6350 o          1 4S4      -0.561100
     12 N3          -0.4620     0.1960    -0.0330 ns         1 4S4      -0.468100
     13 C9          -2.6830    -0.5260    -0.4650 ca         1 4S4      -0.181500
     14 C10         -6.0980     0.9870     0.2700 c          1 4S4       0.659700
     15 O11         -6.5440     2.1150     0.4630 o          1 4S4      -0.653100
     16 N12         -6.8820    -0.0840     0.1290 ns         1 4S4      -0.522900
     17 C13         -8.3210    -0.0330     0.1500 c3         1 4S4      -0.061000
     18 C14         -8.9160    -1.4420    -0.0570 c          1 4S4       0.923600
     19 O15        -10.1560    -1.4960    -0.0910 o          1 4S4      -0.834300
     20 O16         -8.1090    -2.3860    -0.1630 o          1 4S4      -0.834300
     21 BR1          5.9320     0.5290    -0.3710 br         1 4S4      -0.047100
     22 BR2          4.3390    -2.7200    -0.2190 br         1 4S4      -0.015100
     23 N23          2.2080    -0.9000     0.0400 na         1 4S4      -0.124100
     24 H1          -1.7740     2.3550     1.0790 ha         1 4S4       0.138000
     25 H2          -4.1820     2.6070     1.1600 ha         1 4S4       0.153500
     26 H3          -4.6660    -1.1510    -0.8500 ha         1 4S4       0.153500
     27 H4           3.2030     2.2080    -0.0030 ha         1 4S4       0.182000
     28 H5          -0.2390    -0.6780    -0.4840 hn         1 4S4       0.306500
     29 H6          -2.2680    -1.4090    -0.9350 ha         1 4S4       0.138000
     30 H7          -6.5080    -1.0180     0.0440 hn         1 4S4       0.341500
     31 H8          -8.6860     0.3680     1.1010 h1         1 4S4       0.038700
     32 H9          -8.6980     0.6330    -0.6310 h1         1 4S4       0.038700
     33 H11          1.5660    -1.6620     0.2000 hn         1 4S4       0.312700
@<TRIPOS>BOND
     1     1     7 1   
     2     1    11 2   
     3     1    12 1   
     4     2     3 ar  
     5     2    12 1   
     6     2    13 ar  
     7     3     4 ar  
     8     3    24 1   
     9     4     5 ar  
    10     4    25 1   
    11     5     6 ar  
    12     5    14 1   
    13     6    13 ar  
    14     6    26 1   
    15     7     8 2   
    16     7    23 1   
    17     8     9 1   
    18     8    27 1   
    19     9    10 2   
    20     9    21 1   
    21    10    22 1   
    22    10    23 1   
    23    12    28 1   
    24    13    29 1   
    25    14    15 2   
    26    14    16 1   
    27    16    17 1   
    28    16    30 1   
    29    17    18 1   
    30    17    31 1   
    31    17    32 1   
    32    18    19 1   
    33    18    20 1   
    34    23    33 1   
@<TRIPOS>SUBSTRUCTURE
     1 4S4         1 TEMP              0 ****  ****    0 ROOT
