@<TRIPOS>MOLECULE
4S4
   33    34     1     0     0
SMALL
No Charge or Current Charge


@<TRIPOS>ATOM
      1 C2           0.6680     1.1010     0.2600 c          1 4S4       0.643700
      2 C4          -1.8350     0.5050     0.1430 ca         1 4S4      -0.033000
      3 C5          -2.4080     1.7510     0.4690 ca         1 4S4      -0.163500
      4 C6          -3.8050     1.9010     0.5270 ca         1 4S4      -0.050000
      5 C7          -4.6660     0.8130     0.2620 ca         1 4S4      -0.143600
      6 C8          -4.0850    -0.4360    -0.0640 ca         1 4S4      -0.050000
      7 C17          1.9670     0.4040     0.0640 cc         1 4S4      -0.231600
      8 C18          3.1850     1.0240     0.2040 cd         1 4S4      -0.076000
      9 C19          4.2160     0.0970    -0.0460 cd         1 4S4      -0.083900
     10 C21          3.6470    -1.1090    -0.3450 cc         1 4S4      -0.088900
     11 O1           0.5980     2.2870     0.5620 o          1 4S4      -0.561100
     12 N3          -0.4330     0.2740     0.0650 ns         1 4S4      -0.142000
     13 C9          -2.6880    -0.5800    -0.1210 ca         1 4S4      -0.163500
     14 C10         -6.1670     1.0170     0.3350 c          1 4S4       0.592700
     15 O11         -6.6650     2.1000     0.6200 o          1 4S4      -0.653100
     16 N12         -6.9590    -0.0780     0.0650 ns         1 4S4      -0.455900
     17 C13         -8.4410    -0.0840     0.0750 c3         1 4S4      -0.061000
     18 C14         -9.0300    -1.5070    -0.1340 c          1 4S4       0.713000
     19 O15        -10.1720    -1.7160     0.2480 o          1 4S4      -0.729000
     20 O16         -8.3200    -2.3690    -0.6370 o          1 4S4      -0.729000
     21 Br1          6.0620     0.4810     0.0250 br         1 4S4      -0.047100
     22 Br2          4.5040    -2.7350    -0.7700 br         1 4S4      -0.015100
     23 N23          2.2650    -0.9280    -0.2790 na         1 4S4      -0.073000
     24 H1          -1.7940     2.6190     0.6810 ha         1 4S4       0.120000
     25 H2          -4.2180     2.8750     0.7810 ha         1 4S4       0.135500
     26 H3          -4.6990    -1.3070    -0.2780 ha         1 4S4       0.135500
     27 H4           3.3350     2.0690     0.4680 ha         1 4S4       0.164000
     28 H5          -0.1970    -0.6770    -0.1800 hn         1 4S4       0.140000
     29 H6          -2.2680    -1.5520    -0.3740 ha         1 4S4       0.120000
     30 H7          -6.4890    -0.9430    -0.1730 hn         1 4S4       0.341500
     31 H8          -8.7950     0.3060     1.0370 h1         1 4S4       0.038700
     32 H9          -8.8090     0.5650    -0.7300 h1         1 4S4       0.038700
     33 H11          1.5890    -1.6650    -0.4570 hn         1 4S4       0.363000
@<TRIPOS>BOND
     1     1     7 1   
     2     1    11 2   
     3     1    12 1   
     4     2     3 ar  
     5     2    12 1   
     6     2    13 ar  
     7     3     4 ar  
     8     3    24 1   
     9     4     5 ar  
    10     4    25 1   
    11     5     6 ar  
    12     5    14 1   
    13     6    13 ar  
    14     6    26 1   
    15     7     8 2   
    16     7    23 1   
    17     8     9 1   
    18     8    27 1   
    19     9    10 2   
    20     9    21 1   
    21    10    22 1   
    22    10    23 1   
    23    12    28 1   
    24    13    29 1   
    25    14    15 2   
    26    14    16 1   
    27    16    17 1   
    28    16    30 1   
    29    17    18 1   
    30    17    31 1   
    31    17    32 1   
    32    18    19 1   
    33    18    20 1   
    34    23    33 1   
@<TRIPOS>SUBSTRUCTURE
     1 4S4         1 TEMP              0 ****  ****    0 ROOT
