@<TRIPOS>MOLECULE
4S8
   44    43     1     0     0
SMALL
abcg2


@<TRIPOS>ATOM
      1 P2A        -18.7310   -48.8420    -5.2300 p3         1 4S8       0.193300
      2 O3A        -19.4420   -47.6280    -6.0780 oh         1 4S8      -0.528100
      3 O4A        -19.0090   -48.3300    -3.6990 oh         1 4S8      -0.528100
      4 O6A        -17.1940   -48.2770    -5.2930 os         1 4S8      -0.329100
      5 CCP        -16.3450   -48.7370    -6.3370 c3         1 4S8       0.199600
      6 CBP        -15.1070   -47.8290    -6.4240 c3         1 4S8      -0.027000
      7 CDP        -14.4410   -47.7580    -5.0480 c3         1 4S8      -0.087100
      8 CEP        -15.5140   -46.4260    -6.8760 c3         1 4S8      -0.087100
      9 CAP        -14.1500   -48.4980    -7.4440 c3         1 4S8       0.087300
     10 OAP        -14.8440   -48.6710    -8.6570 oh         1 4S8      -0.665000
     11 C9P        -12.8550   -47.7020    -7.6420 c          1 4S8       0.567100
     12 O9P        -11.9370   -47.7700    -6.8350 o          1 4S8      -0.596100
     13 N8P        -12.8160   -46.9320    -8.7380 ns         1 4S8      -0.504900
     14 C7P        -11.7030   -46.0670    -9.0520 c3         1 4S8       0.115000
     15 C6P        -10.5620   -46.7950    -9.7580 c3         1 4S8      -0.184400
     16 C5P         -9.3760   -45.8820    -9.9900 c          1 4S8       0.599100
     17 O5P         -9.0390   -45.0410    -9.1680 o          1 4S8      -0.593100
     18 N4P         -8.7150   -46.0660   -11.1470 ns         1 4S8      -0.511900
     19 C3P         -7.5280   -45.3250   -11.5000 c3         1 4S8       0.114000
     20 C2P         -6.2690   -45.9330   -10.8900 c3         1 4S8       0.055600
     21 S1P         -4.8390   -44.9180   -11.3960 sh         1 4S8      -0.452800
     22 H1         -20.1990   -47.9530    -6.5800 ho         1 4S8       0.461500
     23 H2         -19.4270   -49.0240    -3.1770 ho         1 4S8       0.461500
     24 H3         -16.8740   -48.7380    -7.2930 h1         1 4S8       0.028200
     25 H4         -16.0270   -49.7660    -6.1290 h1         1 4S8       0.028200
     26 H5         -15.1330   -47.3520    -4.3120 hc         1 4S8       0.046867
     27 H6         -14.1260   -48.7460    -4.7040 hc         1 4S8       0.046867
     28 H7         -13.5640   -47.1140    -5.0570 hc         1 4S8       0.046867
     29 H8         -16.2430   -46.0010    -6.1860 hc         1 4S8       0.046867
     30 H9         -14.6590   -45.7490    -6.8940 hc         1 4S8       0.046867
     31 H10        -15.9640   -46.4300    -7.8700 hc         1 4S8       0.046867
     32 H11        -13.8500   -49.4680    -7.0250 h1         1 4S8       0.059700
     33 H12        -14.3940   -49.3410    -9.1820 ho         1 4S8       0.446000
     34 H13        -13.5950   -46.9720    -9.3740 hn         1 4S8       0.328500
     35 H14        -11.3390   -45.6050    -8.1350 h1         1 4S8       0.069200
     36 H15        -12.0810   -45.2640    -9.6850 h1         1 4S8       0.069200
     37 H16        -10.9150   -47.2300   -10.6950 hc         1 4S8       0.064200
     38 H17        -10.2190   -47.6260    -9.1350 hc         1 4S8       0.064200
     39 H18         -9.0200   -46.7920   -11.7750 hn         1 4S8       0.312500
     40 H19         -7.4490   -45.3180   -12.5880 h1         1 4S8       0.068200
     41 H20         -7.6400   -44.2900   -11.1770 h1         1 4S8       0.068200
     42 H21         -6.3430   -45.9420    -9.8040 h1         1 4S8       0.067200
     43 H22         -6.1360   -46.9550   -11.2420 h1         1 4S8       0.067200
     44 H23         -3.8960   -45.6230   -10.7640 hs         1 4S8       0.216800
@<TRIPOS>BOND
     1     1     2 1   
     2     1     3 1   
     3     1     4 1   
     4     2    22 1   
     5     3    23 1   
     6     4     5 1   
     7     5     6 1   
     8     5    24 1   
     9     5    25 1   
    10     6     7 1   
    11     6     8 1   
    12     6     9 1   
    13     7    26 1   
    14     7    27 1   
    15     7    28 1   
    16     8    29 1   
    17     8    30 1   
    18     8    31 1   
    19     9    10 1   
    20     9    11 1   
    21     9    32 1   
    22    10    33 1   
    23    11    12 2   
    24    11    13 1   
    25    13    14 1   
    26    13    34 1   
    27    14    15 1   
    28    14    35 1   
    29    14    36 1   
    30    15    16 1   
    31    15    37 1   
    32    15    38 1   
    33    16    17 2   
    34    16    18 1   
    35    18    19 1   
    36    18    39 1   
    37    19    20 1   
    38    19    40 1   
    39    19    41 1   
    40    20    21 1   
    41    20    42 1   
    42    20    43 1   
    43    21    44 1   
@<TRIPOS>SUBSTRUCTURE
     1 4S8         1 TEMP              0 ****  ****    0 ROOT
