@<TRIPOS>MOLECULE
4S8
   44    43     1     0     0
SMALL
No Charge or Current Charge


@<TRIPOS>ATOM
      1 P2A        -18.9730   -48.8330    -5.4120 p3         1 4S8       0.193300
      2 O3A        -20.1130   -47.7270    -5.9130 oh         1 4S8      -0.528100
      3 O4A        -19.1540   -48.8710    -3.7570 oh         1 4S8      -0.528100
      4 O6A        -17.5260   -48.0460    -5.6380 os         1 4S8      -0.329100
      5 CCP        -16.4840   -48.6550    -6.4190 c3         1 4S8       0.199600
      6 CBP        -15.2350   -47.7160    -6.4730 c3         1 4S8      -0.027000
      7 CDP        -14.7470   -47.4280    -5.0200 c3         1 4S8      -0.087100
      8 CEP        -15.6190   -46.3640    -7.1490 c3         1 4S8      -0.087100
      9 CAP        -14.0990   -48.4480    -7.2820 c3         1 4S8       0.087300
     10 OAP        -14.5680   -48.7930    -8.6160 oh         1 4S8      -0.665000
     11 C9P        -12.7400   -47.6680    -7.3250 c          1 4S8       0.567100
     12 O9P        -11.8730   -47.7910    -6.4700 o          1 4S8      -0.596100
     13 N8P        -12.5510   -46.8830    -8.4440 ns         1 4S8      -0.504900
     14 C7P        -11.3490   -46.0970    -8.7300 c3         1 4S8       0.115000
     15 C6P        -10.2230   -46.9680    -9.3150 c3         1 4S8      -0.184400
     16 C5P         -8.9970   -46.1170    -9.6340 c          1 4S8       0.599100
     17 O5P         -8.2620   -45.6740    -8.7640 o          1 4S8      -0.593100
     18 N4P         -8.7610   -45.9090   -10.9740 ns         1 4S8      -0.511900
     19 C3P         -7.6280   -45.1480   -11.5150 c3         1 4S8       0.114000
     20 C2P         -6.2900   -45.9080   -11.4020 c3         1 4S8       0.055600
     21 S1P         -4.8530   -44.9950   -12.1400 sh         1 4S8      -0.452800
     22 H1         -20.6660   -48.1540    -6.6030 ho         1 4S8       0.461500
     23 H2         -19.2810   -49.8060    -3.4880 ho         1 4S8       0.461500
     24 H3         -16.8510   -48.8500    -7.4350 h1         1 4S8       0.028200
     25 H4         -16.1970   -49.6180    -5.9760 h1         1 4S8       0.028200
     26 H5         -15.5380   -46.9660    -4.4170 hc         1 4S8       0.046867
     27 H6         -14.4400   -48.3540    -4.5190 hc         1 4S8       0.046867
     28 H7         -13.8970   -46.7360    -5.0110 hc         1 4S8       0.046867
     29 H8         -16.4090   -45.8520    -6.5860 hc         1 4S8       0.046867
     30 H9         -14.7610   -45.6830    -7.1960 hc         1 4S8       0.046867
     31 H10        -15.9860   -46.5210    -8.1700 hc         1 4S8       0.046867
     32 H11        -13.8730   -49.3780    -6.7430 h1         1 4S8       0.059700
     33 H12        -13.9340   -49.4410    -8.9990 ho         1 4S8       0.446000
     34 H13        -13.3140   -46.8760    -9.1130 hn         1 4S8       0.328500
     35 H14        -11.0040   -45.6140    -7.8050 h1         1 4S8       0.069200
     36 H15        -11.6110   -45.3050    -9.4450 h1         1 4S8       0.069200
     37 H16        -10.5940   -47.4570   -10.2240 hc         1 4S8       0.064200
     38 H17         -9.9430   -47.7240    -8.5730 hc         1 4S8       0.064200
     39 H18         -9.4210   -46.3210   -11.6240 hn         1 4S8       0.312500
     40 H19         -7.8280   -44.9270   -12.5720 h1         1 4S8       0.068200
     41 H20         -7.5500   -44.1920   -10.9810 h1         1 4S8       0.068200
     42 H21         -6.0690   -46.1030   -10.3450 h1         1 4S8       0.067200
     43 H22         -6.3820   -46.8760   -11.9120 h1         1 4S8       0.067200
     44 H23         -3.9160   -45.9350   -11.8580 hs         1 4S8       0.216800
@<TRIPOS>BOND
     1     1     2 1   
     2     1     3 1   
     3     1     4 1   
     4     2    22 1   
     5     3    23 1   
     6     4     5 1   
     7     5     6 1   
     8     5    24 1   
     9     5    25 1   
    10     6     7 1   
    11     6     8 1   
    12     6     9 1   
    13     7    26 1   
    14     7    27 1   
    15     7    28 1   
    16     8    29 1   
    17     8    30 1   
    18     8    31 1   
    19     9    10 1   
    20     9    11 1   
    21     9    32 1   
    22    10    33 1   
    23    11    12 2   
    24    11    13 1   
    25    13    14 1   
    26    13    34 1   
    27    14    15 1   
    28    14    35 1   
    29    14    36 1   
    30    15    16 1   
    31    15    37 1   
    32    15    38 1   
    33    16    17 2   
    34    16    18 1   
    35    18    19 1   
    36    18    39 1   
    37    19    20 1   
    38    19    40 1   
    39    19    41 1   
    40    20    21 1   
    41    20    42 1   
    42    20    43 1   
    43    21    44 1   
@<TRIPOS>SUBSTRUCTURE
     1 4S8         1 TEMP              0 ****  ****    0 ROOT
