@<TRIPOS>MOLECULE
4S9
   37    37     1     0     0
SMALL
No Charge or Current Charge


@<TRIPOS>ATOM
      1 C4           0.5840     0.3810     0.2890 ca         1 4S9      -0.107300
      2 C5          -0.8260     0.9490     0.4370 c3         1 4S9       0.106000
      3 C6          -3.1120    -0.0890     0.4180 c          1 4S9       0.654100
      4 C11         -0.9790     2.3140    -0.3080 c          1 4S9       0.614100
      5 C7          -5.1230    -1.4630     0.0160 c3         1 4S9       0.225000
      6 C8          -5.3250    -1.8630     1.5000 c3         1 4S9      -0.109100
      7 C9          -5.3790    -2.6820    -0.8980 c3         1 4S9      -0.109100
      8 C10         -6.0220    -0.2770    -0.4200 c3         1 4S9      -0.109100
      9 C12          1.1410     0.1680    -0.9900 ca         1 4S9      -0.087500
     10 C13          2.4390    -0.3560    -1.1200 ca         1 4S9      -0.086500
     11 N1          -1.8210    -0.0410    -0.0140 ns         1 4S9      -0.493900
     12 N2          -0.1660     3.3350     0.1820 ns         1 4S9      -0.384400
     13 C3           1.3410     0.0570     1.4350 ca         1 4S9      -0.087500
     14 Br1          4.9520    -1.3850    -0.1520 br         1 4S9      -0.090100
     15 C1           3.1860    -0.6720     0.0260 ca         1 4S9      -0.006900
     16 C2           2.6390    -0.4670     1.3030 ca         1 4S9      -0.086500
     17 O1          -3.7340    -1.1300    -0.2140 os         1 4S9      -0.470100
     18 O2          -3.5960     0.6800     1.2320 o          1 4S9      -0.554000
     19 O3          -1.7380     2.4900    -1.2570 o          1 4S9      -0.559100
     20 O4           0.0150     4.5670    -0.5600 oh         1 4S9      -0.416100
     21 H1          -1.0100     1.1550     1.4990 h1         1 4S9       0.057700
     22 H2          -6.3070    -2.3300     1.6390 hc         1 4S9       0.050589
     23 H3          -4.5610    -2.5840     1.8160 hc         1 4S9       0.050589
     24 H4          -5.2810    -0.9970     2.1690 hc         1 4S9       0.050589
     25 H5          -5.1980    -2.4260    -1.9490 hc         1 4S9       0.050589
     26 H6          -4.7190    -3.5150    -0.6300 hc         1 4S9       0.050589
     27 H7          -6.4160    -3.0270    -0.8060 hc         1 4S9       0.050589
     28 H8          -5.7340     0.0840    -1.4150 hc         1 4S9       0.050589
     29 H9          -7.0720    -0.5910    -0.4660 hc         1 4S9       0.050589
     30 H10         -5.9650     0.5610     0.2820 hc         1 4S9       0.050589
     31 H11          0.5710     0.4070    -1.8850 ha         1 4S9       0.129000
     32 H12          2.8640    -0.5170    -2.1080 ha         1 4S9       0.133500
     33 H13         -1.5530    -0.7410    -0.6930 hn         1 4S9       0.338500
     34 H14          0.5650     3.1040     0.8540 hn         1 4S9       0.338500
     35 H15          0.9250     0.2080     2.4290 ha         1 4S9       0.129000
     36 H16          3.2170    -0.7150     2.1900 ha         1 4S9       0.133500
     37 H17         -0.1330     5.2700     0.1170 ho         1 4S9       0.443000
@<TRIPOS>BOND
     1     1     2 1   
     2     1     9 ar  
     3     1    13 ar  
     4     2     4 1   
     5     2    11 1   
     6     2    21 1   
     7     3    11 1   
     8     3    17 1   
     9     3    18 2   
    10     4    12 1   
    11     4    19 2   
    12     5     6 1   
    13     5     7 1   
    14     5     8 1   
    15     5    17 1   
    16     6    22 1   
    17     6    23 1   
    18     6    24 1   
    19     7    25 1   
    20     7    26 1   
    21     7    27 1   
    22     8    28 1   
    23     8    29 1   
    24     8    30 1   
    25     9    10 ar  
    26     9    31 1   
    27    10    15 ar  
    28    10    32 1   
    29    11    33 1   
    30    12    20 1   
    31    12    34 1   
    32    13    16 ar  
    33    13    35 1   
    34    14    15 1   
    35    15    16 ar  
    36    16    36 1   
    37    20    37 1   
@<TRIPOS>SUBSTRUCTURE
     1 4S9         1 TEMP              0 ****  ****    0 ROOT
