@<TRIPOS>MOLECULE
4S9
   37    37     1     0     0
SMALL
abcg2


@<TRIPOS>ATOM
      1 C4           0.7430     0.1960     0.2270 ca         1 4S9      -0.107300
      2 C5          -0.6630     0.6150     0.5840 c3         1 4S9       0.106000
      3 C6          -2.9360    -0.1480     0.2960 c          1 4S9       0.654100
      4 C11         -0.9210     1.9950    -0.0360 c          1 4S9       0.614100
      5 C7          -5.0870    -1.2600     0.0020 c3         1 4S9       0.225000
      6 C8          -5.5130    -1.1630     1.4620 c3         1 4S9      -0.109100
      7 C9          -5.4170    -2.6450    -0.5390 c3         1 4S9      -0.109100
      8 C10         -5.7550    -0.1960    -0.8600 c3         1 4S9      -0.109100
      9 C12          1.0980    -0.0790    -1.0910 ca         1 4S9      -0.087500
     10 C13          2.3950    -0.4460    -1.4130 ca         1 4S9      -0.086500
     11 N1          -1.6140    -0.3400     0.0820 ns         1 4S9      -0.493900
     12 N2          -0.7320     2.9930     0.8360 ns         1 4S9      -0.384400
     13 C3           1.7100     0.0990     1.2200 ca         1 4S9      -0.087500
     14 BR1          5.1130    -1.0340    -0.8360 br         1 4S9      -0.090100
     15 C1           3.3440    -0.5340    -0.4040 ca         1 4S9      -0.006900
     16 C2           3.0140    -0.2640     0.9140 ca         1 4S9      -0.086500
     17 O1          -3.6390    -1.1900    -0.1290 os         1 4S9      -0.470100
     18 O2          -3.3780     0.8620     0.8060 o          1 4S9      -0.554000
     19 O3          -1.2070     2.1460    -1.2060 o          1 4S9      -0.559100
     20 O4          -0.7170     4.2850     0.4140 oh         1 4S9      -0.416100
     21 H1          -0.7330     0.6860     1.6750 h1         1 4S9       0.057700
     22 H2          -6.5720    -1.4100     1.5400 hc         1 4S9       0.050589
     23 H3          -4.9640    -1.8780     2.0780 hc         1 4S9       0.050589
     24 H4          -5.3720    -0.1670     1.8750 hc         1 4S9       0.050589
     25 H5          -5.1020    -2.7530    -1.5780 hc         1 4S9       0.050589
     26 H6          -4.9390    -3.4290     0.0500 hc         1 4S9       0.050589
     27 H7          -6.4940    -2.8050    -0.4990 hc         1 4S9       0.050589
     28 H8          -5.4520    -0.2910    -1.9040 hc         1 4S9       0.050589
     29 H9          -6.8370    -0.3290    -0.8180 hc         1 4S9       0.050589
     30 H10         -5.5310     0.8130    -0.5220 hc         1 4S9       0.050589
     31 H11          0.3660    -0.0030    -1.8830 ha         1 4S9       0.129000
     32 H12          2.6540    -0.6540    -2.4420 ha         1 4S9       0.133500
     33 H13         -1.2830    -1.2390    -0.2290 hn         1 4S9       0.338500
     34 H14         -0.4910     2.8500     1.8060 hn         1 4S9       0.338500
     35 H15          1.4500     0.3010     2.2510 ha         1 4S9       0.129000
     36 H16          3.7500    -0.3370     1.7030 ha         1 4S9       0.133500
     37 H17         -1.6190     4.6180     0.5180 ho         1 4S9       0.443000
@<TRIPOS>BOND
     1     1     2 1   
     2     1     9 ar  
     3     1    13 ar  
     4     2     4 1   
     5     2    11 1   
     6     2    21 1   
     7     3    11 1   
     8     3    17 1   
     9     3    18 2   
    10     4    12 1   
    11     4    19 2   
    12     5     6 1   
    13     5     7 1   
    14     5     8 1   
    15     5    17 1   
    16     6    22 1   
    17     6    23 1   
    18     6    24 1   
    19     7    25 1   
    20     7    26 1   
    21     7    27 1   
    22     8    28 1   
    23     8    29 1   
    24     8    30 1   
    25     9    10 ar  
    26     9    31 1   
    27    10    15 ar  
    28    10    32 1   
    29    11    33 1   
    30    12    20 1   
    31    12    34 1   
    32    13    16 ar  
    33    13    35 1   
    34    14    15 1   
    35    15    16 ar  
    36    16    36 1   
    37    20    37 1   
@<TRIPOS>SUBSTRUCTURE
     1 4S9         1 TEMP              0 ****  ****    0 ROOT
