@<TRIPOS>MOLECULE
4SA
   47    48     1     0     0
SMALL
abcg2


@<TRIPOS>ATOM
      1 C4          -7.3520     1.3050    -0.5370 ca         1 4SA      -0.104000
      2 C14          5.8750     0.3500    -0.8500 c3         1 4SA      -0.109100
      3 C5          -7.0080     0.2270     0.2690 ca         1 4SA      -0.111000
      4 C6          -5.6740    -0.0890     0.4790 ca         1 4SA      -0.096500
      5 C11          0.9140    -0.6660     0.7720 c3         1 4SA       0.111000
      6 C7          -3.2390     0.3270     0.1100 cp         1 4SA      -0.016000
      7 C8          -2.7920    -0.1080     1.3570 ca         1 4SA      -0.101500
      8 C9          -1.4560    -0.4150     1.5660 ca         1 4SA      -0.089500
      9 C10         -0.5320    -0.3020     0.5350 ca         1 4SA      -0.115300
     10 C13          5.1830     1.4670    -0.0790 c3         1 4SA       0.226000
     11 N1           1.7830     0.3850     0.3210 ns         1 4SA      -0.496900
     12 C3          -6.3510     2.0620    -1.1320 ca         1 4SA      -0.111000
     13 C1          -4.6590     0.6640    -0.1140 cp         1 4SA      -0.042000
     14 C2          -5.0170     1.7430    -0.9230 ca         1 4SA      -0.096500
     15 O1           3.7370     1.3080    -0.1020 os         1 4SA      -0.472100
     16 C15          5.6900     1.5720     1.3540 c3         1 4SA      -0.109100
     17 C16          5.3930     2.7940    -0.7980 c3         1 4SA      -0.109100
     18 O2           3.6540    -0.7160     0.9250 o          1 4SA      -0.557000
     19 C17          1.2080    -1.9640     0.0060 c          1 4SA       0.605100
     20 O3           1.4680    -1.9790    -1.1800 o          1 4SA      -0.565100
     21 O4           1.1040    -4.2960     0.2190 oh         1 4SA      -0.418100
     22 C18         -0.9720     0.1220    -0.7170 ca         1 4SA      -0.089500
     23 C19         -2.3050     0.4370    -0.9220 ca         1 4SA      -0.101500
     24 H1          -8.3930     1.5540    -0.7000 ha         1 4SA       0.114000
     25 H2           5.4480     0.2390    -1.8480 hc         1 4SA       0.050144
     26 H3           6.9280     0.6040    -0.9710 hc         1 4SA       0.050144
     27 H4           5.8210    -0.6080    -0.3390 hc         1 4SA       0.050144
     28 H5          -7.7800    -0.3750     0.7300 ha         1 4SA       0.114000
     29 H6          -5.4220    -0.9440     1.0940 ha         1 4SA       0.114000
     30 H7           1.0530    -0.8350     1.8450 h1         1 4SA       0.065700
     31 H8          -3.4850    -0.1830     2.1860 ha         1 4SA       0.120000
     32 H9          -1.1310    -0.7330     2.5490 ha         1 4SA       0.122500
     33 H10          1.3860     1.2130    -0.0930 hn         1 4SA       0.340500
     34 H11          0.8590    -3.0230     1.7560 hn         1 4SA       0.339500
     35 H12         -6.6080     2.9090    -1.7540 ha         1 4SA       0.114000
     36 H13         -4.2480     2.3550    -1.3790 ha         1 4SA       0.114000
     37 H14          6.7490     1.8330     1.3390 hc         1 4SA       0.050144
     38 H15          5.1650     2.3610     1.8960 hc         1 4SA       0.050144
     39 H16          5.5850     0.6410     1.9070 hc         1 4SA       0.050144
     40 H17          5.0280     2.7500    -1.8260 hc         1 4SA       0.050144
     41 H18          4.8850     3.6110    -0.2850 hc         1 4SA       0.050144
     42 H19          6.4560     3.0290    -0.8310 hc         1 4SA       0.050144
     43 H20          2.0220    -4.5980     0.2410 ho         1 4SA       0.444000
     44 H21         -0.2800     0.1970    -1.5460 ha         1 4SA       0.122500
     45 H22         -2.6250     0.7490    -1.9080 ha         1 4SA       0.120000
     46 C12          3.1230     0.2530     0.4190 c          1 4SA       0.657100
     47 N2           1.0930    -3.0560     0.7740 ns         1 4SA      -0.383400
@<TRIPOS>BOND
     1     1     3 ar  
     2     1    12 ar  
     3     1    24 1   
     4     2    10 1   
     5     2    25 1   
     6     2    26 1   
     7     2    27 1   
     8     3     4 ar  
     9     3    28 1   
    10     4    13 ar  
    11     4    29 1   
    12     5     9 1   
    13     5    11 1   
    14     5    19 1   
    15     5    30 1   
    16     6     7 ar  
    17     6    13 1   
    18     6    23 ar  
    19     7     8 ar  
    20     7    31 1   
    21     8     9 ar  
    22     8    32 1   
    23     9    22 ar  
    24    10    15 1   
    25    10    16 1   
    26    10    17 1   
    27    11    33 1   
    28    11    46 1   
    29    12    14 ar  
    30    12    35 1   
    31    13    14 ar  
    32    14    36 1   
    33    15    46 1   
    34    16    37 1   
    35    16    38 1   
    36    16    39 1   
    37    17    40 1   
    38    17    41 1   
    39    17    42 1   
    40    18    46 2   
    41    19    20 2   
    42    19    47 1   
    43    21    43 1   
    44    21    47 1   
    45    22    23 ar  
    46    22    44 1   
    47    23    45 1   
    48    34    47 1   
@<TRIPOS>SUBSTRUCTURE
     1 4SA         1 TEMP              0 ****  ****    0 ROOT
