@<TRIPOS>MOLECULE
4SA
   47    48     1     0     0
SMALL
No Charge or Current Charge


@<TRIPOS>ATOM
      1 C4          -7.2370     1.5450    -0.2050 ca         1 4SA      -0.104000
      2 C14          6.1320     0.6320    -0.4060 c3         1 4SA      -0.109100
      3 C5          -6.8460     0.6880     0.8360 ca         1 4SA      -0.111000
      4 C6          -5.5080     0.2710     0.9410 ca         1 4SA      -0.096500
      5 C11          1.0640    -1.0480     0.4510 c3         1 4SA       0.111000
      6 C7          -3.1040     0.2550     0.1180 cp         1 4SA      -0.016000
      7 C8          -2.4940     0.0560     1.3820 ca         1 4SA      -0.101500
      8 C9          -1.1560    -0.3600     1.4890 ca         1 4SA      -0.089500
      9 C10         -0.3900    -0.5940     0.3320 ca         1 4SA      -0.115300
     10 C13          5.1360     1.7300     0.0480 c3         1 4SA       0.226000
     11 N1           1.9680     0.0300     0.0100 ns         1 4SA      -0.496900
     12 C3          -6.2870     1.9830    -1.1420 ca         1 4SA      -0.111000
     13 C1          -4.5300     0.7000     0.0070 cp         1 4SA      -0.042000
     14 C2          -4.9490     1.5650    -1.0370 ca         1 4SA      -0.096500
     15 O1           3.7790     1.2820    -0.1820 os         1 4SA      -0.472100
     16 C15          5.3080     2.1290     1.5370 c3         1 4SA      -0.109100
     17 C16          5.2820     2.9770    -0.8510 c3         1 4SA      -0.109100
     18 O2           3.8040    -0.5510     1.2420 o          1 4SA      -0.557000
     19 C17          1.3200    -2.3800    -0.3240 c          1 4SA       0.605100
     20 O3           2.0880    -2.4770    -1.2780 o          1 4SA      -0.565100
     21 O4           0.5050    -4.6980    -0.6230 oh         1 4SA      -0.418100
     22 C18         -0.9790    -0.3990    -0.9320 ca         1 4SA      -0.089500
     23 C19         -2.3160     0.0190    -1.0360 ca         1 4SA      -0.101500
     24 H1          -8.2720     1.8680    -0.2860 ha         1 4SA       0.114000
     25 H2           5.8720     0.2590    -1.4030 hc         1 4SA       0.050144
     26 H3           7.1500     1.0350    -0.4500 hc         1 4SA       0.050144
     27 H4           6.1510    -0.2160     0.2870 hc         1 4SA       0.050144
     28 H5          -7.5810     0.3440     1.5610 ha         1 4SA       0.114000
     29 H6          -5.2300    -0.4030     1.7470 ha         1 4SA       0.114000
     30 H7           1.2780    -1.2620     1.5060 h1         1 4SA       0.065700
     31 H8          -3.0590     0.2420     2.2920 ha         1 4SA       0.120000
     32 H9          -0.7170    -0.4960     2.4750 ha         1 4SA       0.122500
     33 H10          1.6390     0.7120    -0.6590 hn         1 4SA       0.340500
     34 H11         -0.1560    -3.3120     0.8210 hn         1 4SA       0.339500
     35 H12         -6.5870     2.6500    -1.9480 ha         1 4SA       0.114000
     36 H13         -4.2280     1.9280    -1.7650 ha         1 4SA       0.114000
     37 H14          6.2470     2.6760     1.6790 hc         1 4SA       0.050144
     38 H15          4.4860     2.7770     1.8640 hc         1 4SA       0.050144
     39 H16          5.3420     1.2540     2.1940 hc         1 4SA       0.050144
     40 H17          5.1190     2.7200    -1.9050 hc         1 4SA       0.050144
     41 H18          4.5540     3.7480    -0.5710 hc         1 4SA       0.050144
     42 H19          6.2860     3.4100    -0.7590 hc         1 4SA       0.050144
     43 H20          0.7090    -5.4020     0.0390 ho         1 4SA       0.444000
     44 H21         -0.4030    -0.5730    -1.8400 ha         1 4SA       0.122500
     45 H22         -2.7500     0.1480    -2.0240 ha         1 4SA       0.120000
     46 C12          3.2520     0.1830     0.4390 c          1 4SA       0.657100
     47 N2           0.5900    -3.4710     0.1440 ns         1 4SA      -0.383400
@<TRIPOS>BOND
     1     1     3 ar  
     2     1    12 ar  
     3     1    24 1   
     4     2    10 1   
     5     2    25 1   
     6     2    26 1   
     7     2    27 1   
     8     3     4 ar  
     9     3    28 1   
    10     4    13 ar  
    11     4    29 1   
    12     5     9 1   
    13     5    11 1   
    14     5    19 1   
    15     5    30 1   
    16     6     7 ar  
    17     6    13 1   
    18     6    23 ar  
    19     7     8 ar  
    20     7    31 1   
    21     8     9 ar  
    22     8    32 1   
    23     9    22 ar  
    24    10    15 1   
    25    10    16 1   
    26    10    17 1   
    27    11    33 1   
    28    11    46 1   
    29    12    14 ar  
    30    12    35 1   
    31    13    14 ar  
    32    14    36 1   
    33    15    46 1   
    34    16    37 1   
    35    16    38 1   
    36    16    39 1   
    37    17    40 1   
    38    17    41 1   
    39    17    42 1   
    40    18    46 2   
    41    19    20 2   
    42    19    47 1   
    43    21    43 1   
    44    21    47 1   
    45    22    23 ar  
    46    22    44 1   
    47    23    45 1   
    48    34    47 1   
@<TRIPOS>SUBSTRUCTURE
     1 4SA         1 TEMP              0 ****  ****    0 ROOT
