@<TRIPOS>MOLECULE
4SB
   41    42     1     0     0
SMALL
No Charge or Current Charge


@<TRIPOS>ATOM
      1 C            5.9780     1.4890    -1.5680 c3         1 4SB       0.147800
      2 N            6.6380     1.6850    -2.8730 n8         1 4SB      -0.995200
      3 O           -6.3550     0.7420     0.5900 oh         1 4SB      -0.525100
      4 Br          -5.2880     2.5410    -1.7250 br         1 4SB      -0.096100
      5 C01         -2.1770     1.0050     0.6600 ca         1 4SB      -0.168900
      6 N01          0.0000     1.7690    -0.1440 n2         1 4SB      -0.412300
      7 C02         -0.6870     1.0770     0.7140 ce         1 4SB       0.377800
      8 N02          1.3830     1.7810    -0.0530 ns         1 4SB      -0.277900
      9 C03          2.2080     0.8020    -0.6070 c          1 4SB       0.625100
     10 C04          3.7230     1.0210    -0.3830 c3         1 4SB      -0.094400
     11 C05          4.3060    -0.0790     0.5150 ca         1 4SB      -0.092300
     12 C06         -2.8660     0.2390     1.6220 ca         1 4SB      -0.046000
     13 C07         -4.2680     0.1550     1.5930 ca         1 4SB      -0.157000
     14 C08         -4.9960     0.8330     0.6060 ca         1 4SB       0.185100
     15 C09         -4.3200     1.6010    -0.3600 ca         1 4SB      -0.125900
     16 C10         -2.9160     1.6870    -0.3340 ca         1 4SB      -0.004000
     17 C11          4.4830    -1.3950     0.0370 ca         1 4SB      -0.101500
     18 C12          5.0190    -2.3910     0.8720 ca         1 4SB      -0.109000
     19 C13          5.3800    -2.0820     2.1930 ca         1 4SB      -0.104000
     20 C14          5.2040    -0.7770     2.6790 ca         1 4SB      -0.109000
     21 C15          4.6690     0.2200     1.8450 ca         1 4SB      -0.101500
     22 C16          4.4750     1.1750    -1.7350 c3         1 4SB      -0.062400
     23 H            6.4780     0.6650    -1.0410 h1         1 4SB       0.028700
     24 HA           6.0990     2.4050    -0.9740 h1         1 4SB       0.028700
     25 HN           7.6410     1.8470    -2.7180 hn         1 4SB       0.394000
     26 HNA          6.6180     0.8000    -3.3950 hn         1 4SB       0.394000
     27 HO          -6.6790     1.2790    -0.1650 ho         1 4SB       0.484000
     28 H02         -0.1950     0.5160     1.5130 h4         1 4SB      -0.017200
     29 HN02         1.8600     2.5350     0.4340 hn         1 4SB       0.304500
     30 H04          3.8350     1.9790     0.1390 hc         1 4SB       0.057700
     31 H06         -2.3130    -0.2930     2.3950 ha         1 4SB       0.116000
     32 H07         -4.7920    -0.4380     2.3390 ha         1 4SB       0.134000
     33 H10         -2.4070     2.2850    -1.0880 ha         1 4SB       0.154000
     34 H11          4.2020    -1.6540    -0.9810 ha         1 4SB       0.117500
     35 H12          5.1510    -3.4020     0.4940 ha         1 4SB       0.115500
     36 H13          5.7940    -2.8540     2.8390 ha         1 4SB       0.115000
     37 H14          5.4820    -0.5360     3.7030 ha         1 4SB       0.115500
     38 H15          4.5390     1.2260     2.2370 ha         1 4SB       0.117500
     39 H16          4.0070     1.9860    -2.3070 hc         1 4SB       0.065700
     40 H16A         4.3580     0.2640    -2.3340 hc         1 4SB       0.065700
     41 O01          1.7640    -0.1670    -1.2130 o          1 4SB      -0.540100
@<TRIPOS>BOND
     1     1     2 1   
     2     1    22 1   
     3     1    23 1   
     4     1    24 1   
     5     2    25 1   
     6     2    26 1   
     7     3    14 1   
     8     3    27 1   
     9     4    15 1   
    10     5     7 1   
    11     5    12 ar  
    12     5    16 ar  
    13     6     7 2   
    14     6     8 1   
    15     7    28 1   
    16     8     9 1   
    17     8    29 1   
    18     9    10 1   
    19     9    41 2   
    20    10    11 1   
    21    10    22 1   
    22    10    30 1   
    23    11    17 ar  
    24    11    21 ar  
    25    12    13 ar  
    26    12    31 1   
    27    13    14 ar  
    28    13    32 1   
    29    14    15 ar  
    30    15    16 ar  
    31    16    33 1   
    32    17    18 ar  
    33    17    34 1   
    34    18    19 ar  
    35    18    35 1   
    36    19    20 ar  
    37    19    36 1   
    38    20    21 ar  
    39    20    37 1   
    40    21    38 1   
    41    22    39 1   
    42    22    40 1   
@<TRIPOS>SUBSTRUCTURE
     1 4SB         1 TEMP              0 ****  ****    0 ROOT
