@<TRIPOS>MOLECULE
4SB
   41    42     1     0     0
SMALL
bcc


@<TRIPOS>ATOM
      1 C            6.0450     1.7900    -1.2710 c3         1 4SB       0.147800
      2 N            6.8290     2.0970    -2.4600 n8         1 4SB      -0.884800
      3 O           -6.2400     0.7460     0.7010 oh         1 4SB      -0.486100
      4 BR          -4.8660    -0.1090    -1.9950 br         1 4SB      -0.096100
      5 C01         -2.1140     1.1670     0.8270 ca         1 4SB      -0.168900
      6 N01          0.1030     1.0410    -0.0310 n2         1 4SB      -0.412300
      7 C02         -0.6690     1.3370     0.9340 ce         1 4SB       0.377800
      8 N02          1.4220     1.2270     0.1420 ns         1 4SB      -0.344900
      9 C03          2.2990     0.9090    -0.8470 c          1 4SB       0.692100
     10 C04          3.7540     1.0950    -0.4470 c3         1 4SB      -0.094400
     11 C05          4.2050    -0.1500     0.2920 ca         1 4SB      -0.092300
     12 C06         -2.9270     1.4910     1.9130 ca         1 4SB      -0.064000
     13 C07         -4.2970     1.3430     1.8460 ca         1 4SB      -0.175000
     14 C08         -4.9090     0.8640     0.6880 ca         1 4SB       0.185100
     15 C09         -4.0870     0.5410    -0.4000 ca         1 4SB      -0.125900
     16 C10         -2.7150     0.6880    -0.3350 ca         1 4SB      -0.022000
     17 C11          4.2220    -1.3910    -0.3430 ca         1 4SB      -0.119500
     18 C12          4.6340    -2.5270     0.3390 ca         1 4SB      -0.127000
     19 C13          5.0360    -2.4410     1.6660 ca         1 4SB      -0.122000
     20 C14          5.0210    -1.2090     2.3060 ca         1 4SB      -0.127000
     21 C15          4.6060    -0.0740     1.6220 ca         1 4SB      -0.119500
     22 C16          4.6230     1.4180    -1.6620 c3         1 4SB      -0.062400
     23 H            6.4810     0.9910    -0.6560 h1         1 4SB       0.028700
     24 HA           6.0190     2.6830    -0.6400 h1         1 4SB       0.028700
     25 HN           7.7400     2.4380    -2.1840 hn         1 4SB       0.338800
     26 HNA          7.0030     1.2400    -2.9720 hn         1 4SB       0.338800
     27 HO          -6.5910     0.4130    -0.1340 ho         1 4SB       0.445000
     28 H02         -0.2940     1.7310     1.8820 h4         1 4SB      -0.017200
     29 HN02         1.7680     1.5880     1.0250 hn         1 4SB       0.304500
     30 H04          3.8180     1.9360     0.2520 hc         1 4SB       0.057700
     31 H06         -2.4820     1.8660     2.8260 ha         1 4SB       0.134000
     32 H07         -4.9180     1.5990     2.6960 ha         1 4SB       0.152000
     33 H10         -2.1000     0.4320    -1.1880 ha         1 4SB       0.172000
     34 H11          3.9120    -1.4780    -1.3780 ha         1 4SB       0.135500
     35 H12          4.6390    -3.4830    -0.1680 ha         1 4SB       0.133500
     36 H13          5.3570    -3.3280     2.1960 ha         1 4SB       0.133000
     37 H14          5.3330    -1.1290     3.3400 ha         1 4SB       0.133500
     38 H15          4.6050     0.8850     2.1280 ha         1 4SB       0.135500
     39 H16          4.1820     2.2530    -2.2110 hc         1 4SB       0.065700
     40 H16A         4.6390     0.5650    -2.3460 hc         1 4SB       0.065700
     41 O01          1.9490     0.4850    -1.9300 o          1 4SB      -0.540100
@<TRIPOS>BOND
     1     1     2 1   
     2     1    22 1   
     3     1    23 1   
     4     1    24 1   
     5     2    25 1   
     6     2    26 1   
     7     3    14 1   
     8     3    27 1   
     9     4    15 1   
    10     5     7 1   
    11     5    12 ar  
    12     5    16 ar  
    13     6     7 2   
    14     6     8 1   
    15     7    28 1   
    16     8     9 1   
    17     8    29 1   
    18     9    10 1   
    19     9    41 2   
    20    10    11 1   
    21    10    22 1   
    22    10    30 1   
    23    11    17 ar  
    24    11    21 ar  
    25    12    13 ar  
    26    12    31 1   
    27    13    14 ar  
    28    13    32 1   
    29    14    15 ar  
    30    15    16 ar  
    31    16    33 1   
    32    17    18 ar  
    33    17    34 1   
    34    18    19 ar  
    35    18    35 1   
    36    19    20 ar  
    37    19    36 1   
    38    20    21 ar  
    39    20    37 1   
    40    21    38 1   
    41    22    39 1   
    42    22    40 1   
@<TRIPOS>SUBSTRUCTURE
     1 4SB         1 TEMP              0 ****  ****    0 ROOT
