@<TRIPOS>MOLECULE
4SD
   14    13     1     0     0
SMALL
abcg2


@<TRIPOS>ATOM
      1 C1          -0.0040     0.0740     0.1190 c3         1 4SD       0.184300
      2 C2           1.2360     0.8920    -0.2640 c3         1 4SD      -0.056300
      3 C5          -2.4640     0.1360     0.0850 c1         1 4SD       0.296900
      4 C4          -1.2580     0.8730    -0.2530 c3         1 4SD      -0.056300
      5 C3           2.4550     0.1730     0.0660 c1         1 4SD       0.296900
      6 N2          -3.4170    -0.4480     0.3580 n1         1 4SD      -0.439000
      7 O1           0.0040    -1.1990    -0.4540 oh         1 4SD      -0.631000
      8 N1           3.4180    -0.3980     0.3310 n1         1 4SD      -0.439000
      9 H1           0.0020    -0.0760     1.2000 h1         1 4SD       0.095700
     10 H2           1.2450     1.1130    -1.3350 hc         1 4SD       0.075700
     11 H3           1.2450     1.8470     0.2650 hc         1 4SD       0.075700
     12 H4          -1.2770     1.8270     0.2770 hc         1 4SD       0.075700
     13 H5          -1.2790     1.0950    -1.3230 hc         1 4SD       0.075700
     14 H6          -0.0000    -1.1190    -1.4150 ho         1 4SD       0.447000
@<TRIPOS>BOND
     1     1     2 1   
     2     1     4 1   
     3     1     7 1   
     4     1     9 1   
     5     2     5 1   
     6     2    10 1   
     7     2    11 1   
     8     3     4 1   
     9     3     6 3   
    10     4    12 1   
    11     4    13 1   
    12     5     8 3   
    13     7    14 1   
@<TRIPOS>SUBSTRUCTURE
     1 4SD         1 TEMP              0 ****  ****    0 ROOT
