@<TRIPOS>MOLECULE
4SD
   14    13     1     0     0
SMALL
No Charge or Current Charge


@<TRIPOS>ATOM
      1 C1          -0.0040     0.0460     0.0690 c3         1 4SD       0.184300
      2 C2           1.2750     0.8510    -0.2720 c3         1 4SD      -0.056300
      3 C5          -2.5170     0.1610     0.2020 c1         1 4SD       0.296900
      4 C4          -1.2970     0.8320    -0.2620 c3         1 4SD      -0.056300
      5 C3           2.5090     0.1980     0.1820 c1         1 4SD       0.296900
      6 N2          -3.4980    -0.3430     0.5780 n1         1 4SD      -0.439000
      7 O1           0.0030    -1.2010    -0.6520 oh         1 4SD      -0.631000
      8 N1           3.5000    -0.2920     0.5490 n1         1 4SD      -0.439000
      9 H1           0.0020    -0.1490     1.1530 h1         1 4SD       0.095700
     10 H2           1.3410     1.0220    -1.3530 hc         1 4SD       0.075700
     11 H3           1.2240     1.8360     0.2040 hc         1 4SD       0.075700
     12 H4          -1.2560     1.8180     0.2140 hc         1 4SD       0.075700
     13 H5          -1.3740     1.0020    -1.3420 hc         1 4SD       0.075700
     14 H6          -0.0030    -0.9920    -1.6120 ho         1 4SD       0.447000
@<TRIPOS>BOND
     1     1     2 1   
     2     1     4 1   
     3     1     7 1   
     4     1     9 1   
     5     2     5 1   
     6     2    10 1   
     7     2    11 1   
     8     3     4 1   
     9     3     6 3   
    10     4    12 1   
    11     4    13 1   
    12     5     8 3   
    13     7    14 1   
@<TRIPOS>SUBSTRUCTURE
     1 4SD         1 TEMP              0 ****  ****    0 ROOT
