@<TRIPOS>MOLECULE
4SF
   28    27     1     0     0
SMALL
abcg2


@<TRIPOS>ATOM
      1 C1           0.8250     0.4650     0.0590 c3         1 4SF       0.217700
      2 O6          -2.9950    -0.9910    -0.9520 o          1 4SF      -0.728500
      3 C5          -2.2120    -0.1080    -0.5480 c          1 4SF       0.705200
      4 O7          -2.0120     1.0000    -1.0850 o          1 4SF      -0.728500
      5 C3          -1.4730    -0.4390     0.7410 ce         1 4SF      -0.145400
      6 C4          -2.2880    -1.1700     1.7710 c3         1 4SF      -0.034900
      7 C2          -0.1820    -0.1820     0.9670 c2         1 4SF      -0.252200
      8 C11          1.7230    -0.5850    -0.6410 c3         1 4SF      -0.085700
      9 C12          2.5690    -1.3960     0.3360 c3         1 4SF      -0.082100
     10 C13          0.9020    -1.5010    -1.5410 c3         1 4SF      -0.082100
     11 N            1.5440     1.4650     0.8450 n7         1 4SF      -0.856400
     12 CN           2.5160     2.2450     0.1080 c3         1 4SF       0.156100
     13 H2           0.2940     1.0030    -0.7280 h1         1 4SF       0.112700
     14 H8          -2.6050    -2.1460     1.4000 hc         1 4SF       0.021367
     15 H9          -1.7260    -1.3250     2.6930 hc         1 4SF       0.021367
     16 H10         -3.2000    -0.6240     2.0250 hc         1 4SF       0.021367
     17 H11          0.2260    -0.5160     1.9220 ha         1 4SF       0.118000
     18 H12          2.4100    -0.0310    -1.2910 hc         1 4SF       0.022700
     19 H13          1.9480    -2.0100     0.9910 hc         1 4SF       0.028033
     20 H14          3.2410    -2.0690    -0.2000 hc         1 4SF       0.028033
     21 H15          3.1920    -0.7580     0.9660 hc         1 4SF       0.028033
     22 H16          0.2890    -0.9280    -2.2400 hc         1 4SF       0.028033
     23 H17          1.5520    -2.1520    -2.1280 hc         1 4SF       0.028033
     24 H18          0.2310    -2.1360    -0.9600 hc         1 4SF       0.028033
     25 H19          3.3650     1.6810    -0.2970 h1         1 4SF       0.014033
     26 H20          2.0250     2.7420    -0.7320 h1         1 4SF       0.014033
     27 H21          2.9220     3.0250     0.7540 h1         1 4SF       0.014033
     28 H1           1.9970     1.0220     1.6360 hn         1 4SF       0.389000
@<TRIPOS>BOND
     1     1     7 1   
     2     1     8 1   
     3     1    11 1   
     4     1    13 1   
     5     2     3 1   
     6     3     4 1   
     7     3     5 1   
     8     5     6 1   
     9     5     7 2   
    10     6    14 1   
    11     6    15 1   
    12     6    16 1   
    13     7    17 1   
    14     8     9 1   
    15     8    10 1   
    16     8    18 1   
    17     9    19 1   
    18     9    20 1   
    19     9    21 1   
    20    10    22 1   
    21    10    23 1   
    22    10    24 1   
    23    11    12 1   
    24    11    28 1   
    25    12    25 1   
    26    12    26 1   
    27    12    27 1   
@<TRIPOS>SUBSTRUCTURE
     1 4SF         1 TEMP              0 ****  ****    0 ROOT
