@<TRIPOS>MOLECULE
4SF
   28    27     1     0     0
SMALL
No Charge or Current Charge


@<TRIPOS>ATOM
      1 C1           0.8250     0.4420     0.0130 c3         1 4SF       0.217700
      2 O6          -3.5410    -0.4140    -0.5610 o          1 4SF      -0.728500
      3 C5          -2.3560    -0.1120    -0.5350 c          1 4SF       0.705200
      4 O7          -1.8270     0.4640    -1.4730 o          1 4SF      -0.728500
      5 C3          -1.5440    -0.4660     0.7100 ce         1 4SF      -0.145400
      6 C4          -2.3240    -1.1700     1.8210 c3         1 4SF      -0.034900
      7 C2          -0.2130    -0.2180     0.9110 c2         1 4SF      -0.252200
      8 C11          1.7840    -0.6020    -0.6530 c3         1 4SF      -0.085700
      9 C12          2.6220    -1.4260     0.3620 c3         1 4SF      -0.082100
     10 C13          1.0310    -1.5400    -1.6260 c3         1 4SF      -0.082100
     11 N            1.5650     1.3960     0.8650 n7         1 4SF      -0.856400
     12 CN           2.4320     2.3700     0.1760 c3         1 4SF       0.156100
     13 H2           0.3310     1.0020    -0.7910 h1         1 4SF       0.112700
     14 H8          -2.7450    -2.1190     1.4690 hc         1 4SF       0.021367
     15 H9          -1.6980    -1.4010     2.6910 hc         1 4SF       0.021367
     16 H10         -3.1520    -0.5470     2.1790 hc         1 4SF       0.021367
     17 H11          0.2260    -0.5340     1.8560 ha         1 4SF       0.118000
     18 H12          2.4970    -0.0460    -1.2730 hc         1 4SF       0.022700
     19 H13          1.9770    -2.0410     1.0010 hc         1 4SF       0.028033
     20 H14          3.3100    -2.0970    -0.1670 hc         1 4SF       0.028033
     21 H15          3.2260    -0.7750     1.0040 hc         1 4SF       0.028033
     22 H16          0.4980    -0.9600    -2.3880 hc         1 4SF       0.028033
     23 H17          1.7330    -2.2060    -2.1420 hc         1 4SF       0.028033
     24 H18          0.3020    -2.1620    -1.0920 hc         1 4SF       0.028033
     25 H19          3.2600     1.8700    -0.3420 h1         1 4SF       0.014033
     26 H20          1.8600     2.9490    -0.5610 h1         1 4SF       0.014033
     27 H21          2.8650     3.0730     0.9000 h1         1 4SF       0.014033
     28 H1           2.1360     0.8530     1.5180 hn         1 4SF       0.389000
@<TRIPOS>BOND
     1     1     7 1   
     2     1     8 1   
     3     1    11 1   
     4     1    13 1   
     5     2     3 1   
     6     3     4 1   
     7     3     5 1   
     8     5     6 1   
     9     5     7 2   
    10     6    14 1   
    11     6    15 1   
    12     6    16 1   
    13     7    17 1   
    14     8     9 1   
    15     8    10 1   
    16     8    18 1   
    17     9    19 1   
    18     9    20 1   
    19     9    21 1   
    20    10    22 1   
    21    10    23 1   
    22    10    24 1   
    23    11    12 1   
    24    11    28 1   
    25    12    25 1   
    26    12    26 1   
    27    12    27 1   
@<TRIPOS>SUBSTRUCTURE
     1 4SF         1 TEMP              0 ****  ****    0 ROOT
