@<TRIPOS>MOLECULE
4SG
   24    24     1     0     0
SMALL
abcg2


@<TRIPOS>ATOM
      1 C1          59.7000    16.6650     2.7340 c6         1 4SG       0.394300
      2 O1          59.2230    15.3640     2.8180 oh         1 4SG      -0.715000
      3 C2          61.1750    16.6750     3.1110 c6         1 4SG       0.163300
      4 O2          61.8550    15.7830     2.2680 oh         1 4SG      -0.700000
      5 C3          61.3430    16.3240     4.5830 c6         1 4SG       0.148300
      6 O3          62.7090    16.4530     4.8840 oh         1 4SG      -0.731000
      7 C4          60.4790    17.2500     5.4480 c6         1 4SG       0.033300
      8 S4          60.6350    16.6170     7.1570 sh         1 4SG      -0.443800
      9 C5          59.0300    17.2880     4.9550 c6         1 4SG       0.182300
     10 O5          59.0020    17.5570     3.5590 os         1 4SG      -0.498000
     11 C6          58.1900    18.4160     5.5430 c3         1 4SG       0.156600
     12 O6          57.9780    18.2100     6.9160 oh         1 4SG      -0.716000
     13 H1          59.5740    17.0690     1.7230 h2         1 4SG       0.075700
     14 HO1         58.3620    15.3190     2.3870 ho         1 4SG       0.514000
     15 H2          61.5290    17.7060     2.9650 h1         1 4SG       0.048700
     16 HO2         62.8000    15.9000     2.4090 ho         1 4SG       0.521000
     17 H3          61.0030    15.2880     4.7350 h1         1 4SG       0.075700
     18 HO3         62.8310    16.2640     5.8230 ho         1 4SG       0.529000
     19 H4          60.9050    18.2580     5.4170 h1         1 4SG       0.078700
     20 HS4         60.4810    17.7690     7.8120 hs         1 4SG       0.227800
     21 H5          58.5530    16.3250     5.1750 h1         1 4SG       0.080700
     22 H61         58.7010    19.3690     5.3470 h1         1 4SG       0.033200
     23 H62         57.2420    18.4410     4.9910 h1         1 4SG       0.033200
     24 HO6         57.4460    18.9410     7.2410 ho         1 4SG       0.508000
@<TRIPOS>BOND
     1     1     2 1   
     2     1     3 1   
     3     1    10 1   
     4     1    13 1   
     5     2    14 1   
     6     3     4 1   
     7     3     5 1   
     8     3    15 1   
     9     4    16 1   
    10     5     6 1   
    11     5     7 1   
    12     5    17 1   
    13     6    18 1   
    14     7     8 1   
    15     7     9 1   
    16     7    19 1   
    17     8    20 1   
    18     9    10 1   
    19     9    11 1   
    20     9    21 1   
    21    11    12 1   
    22    11    22 1   
    23    11    23 1   
    24    12    24 1   
@<TRIPOS>SUBSTRUCTURE
     1 4SG         1 TEMP              0 ****  ****    0 ROOT
