@<TRIPOS>MOLECULE
4SG
   24    24     1     0     0
SMALL
No Charge or Current Charge


@<TRIPOS>ATOM
      1 C1          59.6960    16.6560     2.6480 c6         1 4SG       0.394300
      2 O1          59.0880    15.3740     2.8180 oh         1 4SG      -0.715000
      3 C2          61.2270    16.6750     2.9980 c6         1 4SG       0.163300
      4 O2          62.0250    15.7800     2.1890 oh         1 4SG      -0.700000
      5 C3          61.4200    16.3380     4.5020 c6         1 4SG       0.148300
      6 O3          62.8180    16.3890     4.8560 oh         1 4SG      -0.731000
      7 C4          60.5950    17.3140     5.3860 c6         1 4SG       0.033300
      8 S4          60.8120    16.7930     7.1820 sh         1 4SG      -0.443800
      9 C5          59.0910    17.3040     4.9450 c6         1 4SG       0.182300
     10 O5          58.9910    17.5650     3.5140 os         1 4SG      -0.498000
     11 C6          58.2180    18.4090     5.6340 c3         1 4SG       0.156600
     12 O6          58.0690    18.2470     7.0570 oh         1 4SG      -0.716000
     13 H1          59.5750    16.9880     1.6040 h2         1 4SG       0.075700
     14 HO1         58.1460    15.5120     2.5780 ho         1 4SG       0.514000
     15 H2          61.5790    17.7050     2.8410 h1         1 4SG       0.048700
     16 HO2         62.8350    15.6270     2.7350 ho         1 4SG       0.521000
     17 H3          61.0310    15.3220     4.6750 h1         1 4SG       0.075700
     18 HO3         62.8400    16.3850     5.8430 ho         1 4SG       0.529000
     19 H4          60.9860    18.3340     5.2590 h1         1 4SG       0.078700
     20 HS4         59.7430    17.5030     7.6360 hs         1 4SG       0.227800
     21 H5          58.6440    16.3250     5.1690 h1         1 4SG       0.080700
     22 H61         58.6690    19.3860     5.4140 h1         1 4SG       0.033200
     23 H62         57.2280    18.3950     5.1590 h1         1 4SG       0.033200
     24 HO6         57.4180    18.9250     7.3570 ho         1 4SG       0.508000
@<TRIPOS>BOND
     1     1     2 1   
     2     1     3 1   
     3     1    10 1   
     4     1    13 1   
     5     2    14 1   
     6     3     4 1   
     7     3     5 1   
     8     3    15 1   
     9     4    16 1   
    10     5     6 1   
    11     5     7 1   
    12     5    17 1   
    13     6    18 1   
    14     7     8 1   
    15     7     9 1   
    16     7    19 1   
    17     8    20 1   
    18     9    10 1   
    19     9    11 1   
    20     9    21 1   
    21    11    12 1   
    22    11    22 1   
    23    11    23 1   
    24    12    24 1   
@<TRIPOS>SUBSTRUCTURE
     1 4SG         1 TEMP              0 ****  ****    0 ROOT
