@<TRIPOS>MOLECULE
4SH
   56    59     1     0     0
SMALL
bcc


@<TRIPOS>ATOM
      1 C8          -1.2110    -0.0860    -1.2830 c          1 4SH       0.661100
      2 O2          -1.9530     0.7500    -1.7630 o          1 4SH      -0.550100
      3 C9          -1.4630    -1.5790    -1.3650 c3         1 4SH       0.092800
      4 N4          -2.8260    -1.8990    -1.0350 n3         1 4SH      -0.695600
      5 O3          -4.8960    -3.3240     0.2760 os         1 4SH      -0.403600
      6 C14         -3.1630    -3.2610    -1.4130 c6         1 4SH       0.124800
      7 C17         -3.1160    -1.6840     0.3730 c6         1 4SH       0.124800
      8 C15         -4.6180    -3.5380    -1.0910 c6         1 4SH       0.130400
      9 C16         -4.5720    -2.0050     0.6540 c6         1 4SH       0.130400
     10 C1           1.6120     1.8880     0.1000 cc         1 4SH      -0.242600
     11 O1           2.9220     1.0510     1.8860 o          1 4SH      -0.590100
     12 S1          -0.4570     2.9190    -1.0250 ss         1 4SH       0.010200
     13 C2           2.5270     0.9090     0.7390 c          1 4SH       0.706700
     14 N3          -0.0590     0.2490    -0.6510 ns         1 4SH      -0.458100
     15 C5           1.7930     3.3070     0.1570 cc         1 4SH      -0.032300
     16 C6           0.7650     3.9820    -0.4190 cd         1 4SH      -0.109400
     17 C7           0.4340     1.5350    -0.5080 cd         1 4SH       0.098500
     18 C10          2.9800     4.0130     0.7430 c6         1 4SH      -0.014100
     19 C11          3.0330     5.4710     0.2890 c6         1 4SH      -0.073400
     20 C12          1.6650     6.1380     0.3820 c6         1 4SH      -0.071400
     21 C13          0.6660     5.4680    -0.5580 c6         1 4SH       0.003900
     22 N2           2.8420    -0.1500    -0.0370 ns         1 4SH      -0.592900
     23 C3           3.4360    -1.3790     0.4510 c3         1 4SH       0.144300
     24 C4           2.3900    -2.4630     0.5370 ca         1 4SH      -0.121300
     25 C22          1.4210    -2.4180     1.5400 ca         1 4SH      -0.123000
     26 C21          0.4170    -3.3740     1.5950 ca         1 4SH      -0.134000
     27 C20          0.3660    -4.3880     0.6450 ca         1 4SH      -0.127000
     28 C19          1.3230    -4.4380    -0.3570 ca         1 4SH      -0.134000
     29 C18          2.3290    -3.4790    -0.4110 ca         1 4SH      -0.123000
     30 H9          -0.7340    -2.1320    -0.7510 h1         1 4SH       0.056200
     31 H9A         -1.2700    -1.8710    -2.4020 h1         1 4SH       0.056200
     32 H14         -3.0060    -3.3880    -2.4870 h1         1 4SH       0.043200
     33 H14A        -2.5250    -4.0000    -0.8990 h1         1 4SH       0.043200
     34 H17         -2.4710    -2.3010     1.0210 h1         1 4SH       0.043200
     35 H17A        -2.9370    -0.6390     0.6390 h1         1 4SH       0.043200
     36 H15         -4.8590    -4.5780    -1.3150 h1         1 4SH       0.055450
     37 H15A        -5.2570    -2.9000    -1.7170 h1         1 4SH       0.055450
     38 H16         -5.2110    -1.2840     0.1260 h1         1 4SH       0.055450
     39 H16A        -4.7720    -1.9120     1.7220 h1         1 4SH       0.055450
     40 HN3          0.4730    -0.4920    -0.2160 hn         1 4SH       0.335500
     41 H10          2.9350     3.9590     1.8350 hc         1 4SH       0.060200
     42 H10A         3.9020     3.5020     0.4560 hc         1 4SH       0.060200
     43 H11          3.7630     6.0130     0.8910 hc         1 4SH       0.041200
     44 H11A         3.3830     5.5180    -0.7470 hc         1 4SH       0.041200
     45 H12          1.2980     6.0800     1.4110 hc         1 4SH       0.043200
     46 H12A         1.7420     7.1980     0.1340 hc         1 4SH       0.043200
     47 H13          0.8750     5.7620    -1.5920 hc         1 4SH       0.048700
     48 H13A        -0.3490     5.8120    -0.3410 hc         1 4SH       0.048700
     49 HN2          2.6130    -0.1110    -1.0180 hn         1 4SH       0.317500
     50 H3           4.2430    -1.6750    -0.2210 h1         1 4SH       0.068700
     51 H3A          3.8800    -1.1840     1.4260 h1         1 4SH       0.068700
     52 H22          1.4560    -1.6360     2.2900 ha         1 4SH       0.139500
     53 H21         -0.3260    -3.3270     2.3800 ha         1 4SH       0.135500
     54 H20         -0.4200    -5.1300     0.6850 ha         1 4SH       0.135000
     55 H19          1.2870    -5.2210    -1.1030 ha         1 4SH       0.135500
     56 H18          3.0690    -3.5240    -1.2010 ha         1 4SH       0.139500
@<TRIPOS>BOND
     1     1     2 2   
     2     1     3 1   
     3     1    14 1   
     4     3     4 1   
     5     3    30 1   
     6     3    31 1   
     7     4     6 1   
     8     4     7 1   
     9     5     8 1   
    10     5     9 1   
    11     6     8 1   
    12     6    32 1   
    13     6    33 1   
    14     7     9 1   
    15     7    34 1   
    16     7    35 1   
    17     8    36 1   
    18     8    37 1   
    19     9    38 1   
    20     9    39 1   
    21    10    13 1   
    22    10    15 1   
    23    10    17 2   
    24    11    13 2   
    25    12    16 1   
    26    12    17 1   
    27    13    22 1   
    28    14    17 1   
    29    14    40 1   
    30    15    16 2   
    31    15    18 1   
    32    16    21 1   
    33    18    19 1   
    34    18    41 1   
    35    18    42 1   
    36    19    20 1   
    37    19    43 1   
    38    19    44 1   
    39    20    21 1   
    40    20    45 1   
    41    20    46 1   
    42    21    47 1   
    43    21    48 1   
    44    22    23 1   
    45    22    49 1   
    46    23    24 1   
    47    23    50 1   
    48    23    51 1   
    49    24    25 ar  
    50    24    29 ar  
    51    25    26 ar  
    52    25    52 1   
    53    26    27 ar  
    54    26    53 1   
    55    27    28 ar  
    56    27    54 1   
    57    28    29 ar  
    58    28    55 1   
    59    29    56 1   
@<TRIPOS>SUBSTRUCTURE
     1 4SH         1 TEMP              0 ****  ****    0 ROOT
