@<TRIPOS>MOLECULE
4SH
   56    59     1     0     0
SMALL
No Charge or Current Charge


@<TRIPOS>ATOM
      1 C8          -0.9420    -0.1090    -2.0510 c          1 4SH       0.594100
      2 O2          -1.3340     0.5650    -2.9970 o          1 4SH      -0.550100
      3 C9          -1.3930    -1.5830    -1.8350 c3         1 4SH       0.092800
      4 N4          -2.6170    -1.8220    -1.0020 n3         1 4SH      -0.695600
      5 O3          -4.1350    -3.0080     1.1760 os         1 4SH      -0.450000
      6 C14         -3.0540    -3.2530    -1.0270 c6         1 4SH       0.124800
      7 C17         -2.4970    -1.3300     0.4080 c6         1 4SH       0.124800
      8 C15         -4.3380    -3.4810    -0.1760 c6         1 4SH       0.153600
      9 C16         -3.7920    -1.6030     1.2290 c6         1 4SH       0.153600
     10 C1           1.4690     1.9680    -0.0110 cc         1 4SH      -0.242600
     11 O1           2.7480     1.2520     1.9150 o          1 4SH      -0.590100
     12 S1          -0.0960     3.0700    -1.8340 ss         1 4SH       0.300000
     13 C2           2.1990     0.9860     0.8570 c          1 4SH       0.639700
     14 N3          -0.0530     0.3640    -1.0950 ns         1 4SH      -0.391100
     15 C5           1.6660     3.3900     0.0720 cc         1 4SH      -0.032300
     16 C6           0.8940     4.1090    -0.8070 cd         1 4SH      -0.254300
     17 C7           0.5070     1.6370    -0.9610 cd         1 4SH      -0.046400
     18 C10          2.6430     4.0540     1.0300 c6         1 4SH      -0.014100
     19 C11          2.8960     5.5390     0.6590 c6         1 4SH      -0.073400
     20 C12          1.5790     6.2680     0.3030 c6         1 4SH      -0.071400
     21 C13          0.9100     5.6180    -0.9310 c6         1 4SH       0.003900
     22 N2           2.2420    -0.2860     0.3410 ns         1 4SH      -0.525900
     23 C3           2.7520    -1.4670     1.0260 c3         1 4SH       0.144300
     24 C4           1.9320    -2.6810     0.6210 ca         1 4SH      -0.121300
     25 C22          0.8540    -3.1080     1.4210 ca         1 4SH      -0.105000
     26 C21          0.0780    -4.2140     1.0320 ca         1 4SH      -0.116000
     27 C20          0.3730    -4.8960    -0.1600 ca         1 4SH      -0.109000
     28 C19          1.4440    -4.4720    -0.9640 ca         1 4SH      -0.116000
     29 C18          2.2220    -3.3660    -0.5750 ca         1 4SH      -0.105000
     30 H9          -0.5410    -2.1270    -1.4080 h1         1 4SH       0.056200
     31 H9A         -1.5510    -1.9970    -2.8400 h1         1 4SH       0.056200
     32 H14         -3.2550    -3.5720    -2.0600 h1         1 4SH       0.043200
     33 H14A        -2.2580    -3.9020    -0.6380 h1         1 4SH       0.043200
     34 H17         -1.6520    -1.8200     0.9140 h1         1 4SH       0.043200
     35 H17A        -2.3010    -0.2480     0.4240 h1         1 4SH       0.043200
     36 H15         -4.5840    -4.5520    -0.1510 h1         1 4SH       0.055450
     37 H15A        -5.1870    -2.9450    -0.6260 h1         1 4SH       0.055450
     38 H16         -4.6240    -1.0100     0.8230 h1         1 4SH       0.055450
     39 H16A        -3.6410    -1.3070     2.2760 h1         1 4SH       0.055450
     40 HN3          0.1560    -0.3260    -0.3830 hn         1 4SH       0.335500
     41 H10          2.2510     4.0020     2.0540 hc         1 4SH       0.060200
     42 H10A         3.6090     3.5320     1.0380 hc         1 4SH       0.060200
     43 H11          3.3980     6.0500     1.4930 hc         1 4SH       0.041200
     44 H11A         3.5830     5.5920    -0.1960 hc         1 4SH       0.041200
     45 H12          0.8930     6.2280     1.1610 hc         1 4SH       0.043200
     46 H12A         1.7740     7.3310     0.1060 hc         1 4SH       0.043200
     47 H13          1.4590     5.9080    -1.8370 hc         1 4SH       0.048700
     48 H13A        -0.1100     6.0100    -1.0480 hc         1 4SH       0.048700
     49 HN2          1.9410    -0.3830    -0.6200 hn         1 4SH       0.317500
     50 H3           3.8060    -1.6150     0.7550 h1         1 4SH       0.068700
     51 H3A          2.6950    -1.3240     2.1140 h1         1 4SH       0.068700
     52 H22          0.6140    -2.5810     2.3430 ha         1 4SH       0.121500
     53 H21         -0.7550    -4.5380     1.6520 ha         1 4SH       0.117500
     54 H20         -0.2280    -5.7510    -0.4610 ha         1 4SH       0.117000
     55 H19          1.6720    -4.9980    -1.8880 ha         1 4SH       0.117500
     56 H18          3.0470    -3.0420    -1.2050 ha         1 4SH       0.121500
@<TRIPOS>BOND
     1     1     2 2   
     2     1     3 1   
     3     1    14 1   
     4     3     4 1   
     5     3    30 1   
     6     3    31 1   
     7     4     6 1   
     8     4     7 1   
     9     5     8 1   
    10     5     9 1   
    11     6     8 1   
    12     6    32 1   
    13     6    33 1   
    14     7     9 1   
    15     7    34 1   
    16     7    35 1   
    17     8    36 1   
    18     8    37 1   
    19     9    38 1   
    20     9    39 1   
    21    10    13 1   
    22    10    15 1   
    23    10    17 2   
    24    11    13 2   
    25    12    16 1   
    26    12    17 1   
    27    13    22 1   
    28    14    17 1   
    29    14    40 1   
    30    15    16 2   
    31    15    18 1   
    32    16    21 1   
    33    18    19 1   
    34    18    41 1   
    35    18    42 1   
    36    19    20 1   
    37    19    43 1   
    38    19    44 1   
    39    20    21 1   
    40    20    45 1   
    41    20    46 1   
    42    21    47 1   
    43    21    48 1   
    44    22    23 1   
    45    22    49 1   
    46    23    24 1   
    47    23    50 1   
    48    23    51 1   
    49    24    25 ar  
    50    24    29 ar  
    51    25    26 ar  
    52    25    52 1   
    53    26    27 ar  
    54    26    53 1   
    55    27    28 ar  
    56    27    54 1   
    57    28    29 ar  
    58    28    55 1   
    59    29    56 1   
@<TRIPOS>SUBSTRUCTURE
     1 4SH         1 TEMP              0 ****  ****    0 ROOT
