@<TRIPOS>MOLECULE
4SI
   52    54     1     0     0
SMALL
No Charge or Current Charge


@<TRIPOS>ATOM
      1 C14         87.3050   -12.3620    -2.1750 ca         1 4SI      -0.065300
      2 C10         91.9890   -11.5830    -1.8150 ca         1 4SI      -0.228000
      3 C12         89.4040   -11.5590    -1.2180 c1         1 4SI      -0.169100
      4 C13         87.9530   -11.6140    -0.9960 c3         1 4SI       0.078700
      5 C01         90.9630   -13.8810    -4.0360 c3         1 4SI      -0.083100
      6 C03         92.4220   -11.9940    -3.0990 ca         1 4SI       0.224300
      7 C05         94.5830   -11.6410    -2.4510 ca         1 4SI       0.430900
      8 C08         92.9970   -11.2120    -0.9030 ca         1 4SI       0.448900
      9 C15         87.4580   -13.7650    -2.2810 ca         1 4SI      -0.079000
     10 C16         86.9090   -14.5050    -3.3570 cp         1 4SI      -0.037000
     11 C17         87.0870   -15.9900    -3.4490 cp         1 4SI      -0.014000
     12 C18         86.0700   -16.8180    -3.9820 ca         1 4SI      -0.110000
     13 C19         86.2310   -18.2120    -4.0730 ca         1 4SI      -0.072000
     14 C20         87.4250   -18.8290    -3.6300 ca         1 4SI      -0.150600
     15 C21         87.6340   -20.3270    -3.7120 c          1 4SI       0.615700
     16 C24         88.4440   -18.0100    -3.0960 ca         1 4SI      -0.072000
     17 C25         88.2760   -16.6180    -3.0070 ca         1 4SI      -0.110000
     18 C26         86.1910   -13.7940    -4.3470 ca         1 4SI      -0.091000
     19 C27         86.0370   -12.4020    -4.2660 ca         1 4SI      -0.105000
     20 C28         86.5900   -11.6840    -3.1940 ca         1 4SI       0.125000
     21 C30         87.6150   -12.2350     0.3790 c3         1 4SI      -0.082100
     22 N04         93.7340   -12.0210    -3.4120 nb         1 4SI      -0.291000
     23 N06         95.8950   -11.6650    -2.7710 nv         1 4SI      -1.063900
     24 N07         94.2950   -11.2340    -1.2140 nb         1 4SI      -0.343000
     25 N09         92.7320   -10.7950     0.3620 nv         1 4SI      -1.078900
     26 N22         86.6440   -21.0870    -4.2290 nt         1 4SI      -0.603000
     27 O23         88.6580   -20.8710    -3.3330 o          1 4SI      -0.600100
     28 Cl29        86.3690    -9.9320    -3.1880 cl         1 4SI      -0.205000
     29 H1          87.6000   -10.5790    -0.9500 hc         1 4SI       0.080700
     30 H2          90.2720   -14.1490    -4.8440 hc         1 4SI       0.038033
     31 H3          91.8040   -14.5850    -4.0540 hc         1 4SI       0.038033
     32 H4          90.4350   -14.0010    -3.0830 hc         1 4SI       0.038033
     33 H5          91.9510   -12.3460    -5.1880 hc         1 4SI       0.062200
     34 H6          90.5990   -11.7580    -4.2510 hc         1 4SI       0.062200
     35 H7          88.0160   -14.2960    -1.5150 ha         1 4SI       0.130000
     36 H8          85.1350   -16.3780    -4.3190 ha         1 4SI       0.120500
     37 H9          85.4150   -18.7980    -4.4880 ha         1 4SI       0.125000
     38 H10         89.3760   -18.4510    -2.7490 ha         1 4SI       0.125000
     39 H11         89.0880   -16.0210    -2.6020 ha         1 4SI       0.120500
     40 H12         85.7660   -14.3210    -5.1980 ha         1 4SI       0.121000
     41 H13         85.4910   -11.8740    -5.0440 ha         1 4SI       0.131000
     42 H14         88.0030   -11.6070     1.1900 hc         1 4SI       0.042367
     43 H15         86.5290   -12.3140     0.5050 hc         1 4SI       0.042367
     44 H16         88.0480   -13.2360     0.4950 hc         1 4SI       0.042367
     45 H17         96.1460   -11.7350    -3.7540 hn         1 4SI       0.497500
     46 H18         96.5460   -11.1700    -2.1670 hn         1 4SI       0.497500
     47 H19         93.4680   -10.3080     0.8660 hn         1 4SI       0.501500
     48 H20         91.7750   -10.5380     0.5880 hn         1 4SI       0.501500
     49 H21         86.7720   -22.0850    -4.2880 hn         1 4SI       0.313000
     50 H22         85.7890   -20.6600    -4.5490 hn         1 4SI       0.313000
     51 C11         90.5920   -11.5560    -1.4680 cg         1 4SI      -0.075000
     52 C02         91.4630   -12.4320    -4.2090 c3         1 4SI      -0.137700
@<TRIPOS>BOND
     1     1     4 1   
     2     1     9 ar  
     3     1    20 ar  
     4     2     6 ar  
     5     2     8 ar  
     6     2    51 1   
     7     3     4 1   
     8     3    51 3   
     9     4    21 1   
    10     4    29 1   
    11     5    30 1   
    12     5    31 1   
    13     5    32 1   
    14     5    52 1   
    15     6    22 ar  
    16     6    52 1   
    17     7    22 ar  
    18     7    23 1   
    19     7    24 ar  
    20     8    24 ar  
    21     8    25 1   
    22     9    10 ar  
    23     9    35 1   
    24    10    11 1   
    25    10    18 ar  
    26    11    12 ar  
    27    11    17 ar  
    28    12    13 ar  
    29    12    36 1   
    30    13    14 ar  
    31    13    37 1   
    32    14    15 1   
    33    14    16 ar  
    34    15    26 1   
    35    15    27 2   
    36    16    17 ar  
    37    16    38 1   
    38    17    39 1   
    39    18    19 ar  
    40    18    40 1   
    41    19    20 ar  
    42    19    41 1   
    43    20    28 1   
    44    21    42 1   
    45    21    43 1   
    46    21    44 1   
    47    23    45 1   
    48    23    46 1   
    49    25    47 1   
    50    25    48 1   
    51    26    49 1   
    52    26    50 1   
    53    33    52 1   
    54    34    52 1   
@<TRIPOS>SUBSTRUCTURE
     1 4SI         1 TEMP              0 ****  ****    0 ROOT
