@<TRIPOS>MOLECULE
4SI
   52    54     1     0     0
SMALL
abcg2


@<TRIPOS>ATOM
      1 C14         87.0680   -12.2330    -2.3970 ca         1 4SI      -0.065300
      2 C10         91.9180   -12.0000    -1.8720 ca         1 4SI      -0.228000
      3 C12         89.3370   -11.5750    -1.6700 c1         1 4SI      -0.169100
      4 C13         87.9100   -11.2960    -1.5520 c3         1 4SI       0.078700
      5 C01         91.2470   -13.1090    -4.8790 c3         1 4SI      -0.083100
      6 C03         92.5930   -11.9970    -3.0920 ca         1 4SI       0.224300
      7 C05         94.5530   -12.4230    -2.0320 ca         1 4SI       0.430900
      8 C08         92.7110   -12.2390    -0.7190 ca         1 4SI       0.448900
      9 C15         87.4400   -13.5610    -2.5720 ca         1 4SI      -0.079000
     10 C16         86.6590   -14.4670    -3.2850 cp         1 4SI      -0.037000
     11 C17         87.0730   -15.8760    -3.4350 cp         1 4SI      -0.014000
     12 C18         86.1260   -16.9000    -3.4050 ca         1 4SI      -0.110000
     13 C19         86.5040   -18.2250    -3.5420 ca         1 4SI      -0.072000
     14 C20         87.8430   -18.5650    -3.7200 ca         1 4SI      -0.150600
     15 C21         88.3040   -19.9760    -3.9070 c          1 4SI       0.615700
     16 C24         88.7900   -17.5450    -3.7680 ca         1 4SI      -0.072000
     17 C25         88.4130   -16.2230    -3.6170 ca         1 4SI      -0.110000
     18 C26         85.4690   -14.0130    -3.8520 ca         1 4SI      -0.091000
     19 C27         85.0730   -12.6980    -3.6950 ca         1 4SI      -0.105000
     20 C28         85.8640   -11.8240    -2.9650 ca         1 4SI       0.125000
     21 C30         87.4630   -11.3570    -0.0830 c3         1 4SI      -0.082100
     22 N04         93.9000   -12.2060    -3.1800 nb         1 4SI      -0.291000
     23 N06         95.8740   -12.6630    -2.1250 nv         1 4SI      -1.063900
     24 N07         94.0200   -12.4460    -0.8120 nb         1 4SI      -0.343000
     25 N09         92.1630   -12.2660     0.5010 nv         1 4SI      -1.078900
     26 N22         87.5220   -20.9340    -3.3830 nt         1 4SI      -0.603000
     27 O23         89.3360   -20.2230    -4.5150 o          1 4SI      -0.600100
     28 CL29        85.3030   -10.1920    -2.7740 cl         1 4SI      -0.205000
     29 H1          87.7520   -10.2740    -1.9080 hc         1 4SI       0.080700
     30 H2          90.7310   -12.9560    -5.8270 hc         1 4SI       0.038033
     31 H3          92.0210   -13.8600    -5.0360 hc         1 4SI       0.038033
     32 H4          90.5250   -13.5130    -4.1680 hc         1 4SI       0.038033
     33 H5          92.5400   -11.4010    -5.1230 hc         1 4SI       0.062200
     34 H6          91.0560   -11.0590    -4.2390 hc         1 4SI       0.062200
     35 H7          88.3640   -13.8950    -2.1130 ha         1 4SI       0.130000
     36 H8          85.0790   -16.6680    -3.2570 ha         1 4SI       0.120500
     37 H9          85.7330   -18.9840    -3.5260 ha         1 4SI       0.125000
     38 H10         89.8340   -17.7840    -3.9240 ha         1 4SI       0.125000
     39 H11         89.1700   -15.4500    -3.6660 ha         1 4SI       0.120500
     40 H12         84.8510   -14.6790    -4.4400 ha         1 4SI       0.121000
     41 H13         84.1520   -12.3510    -4.1440 ha         1 4SI       0.131000
     42 H14         88.0280   -10.6470     0.5190 hc         1 4SI       0.042367
     43 H15         86.4050   -11.1110     0.0010 hc         1 4SI       0.042367
     44 H16         87.6180   -12.3560     0.3220 hc         1 4SI       0.042367
     45 H17         96.3400   -12.4960    -2.9990 hn         1 4SI       0.497500
     46 H18         96.4350   -12.6680    -1.2910 hn         1 4SI       0.497500
     47 H19         92.7470   -12.3880     1.3100 hn         1 4SI       0.501500
     48 H20         91.1890   -12.0640     0.6430 hn         1 4SI       0.501500
     49 H21         87.8040   -21.8970    -3.4600 hn         1 4SI       0.313000
     50 H22         86.7650   -20.7340    -2.7520 hn         1 4SI       0.313000
     51 C11         90.5240   -11.7740    -1.7680 cg         1 4SI      -0.075000
     52 C02         91.8490   -11.7970    -4.3770 c3         1 4SI      -0.137700
@<TRIPOS>BOND
     1     1     4 1   
     2     1     9 ar  
     3     1    20 ar  
     4     2     6 ar  
     5     2     8 ar  
     6     2    51 1   
     7     3     4 1   
     8     3    51 3   
     9     4    21 1   
    10     4    29 1   
    11     5    30 1   
    12     5    31 1   
    13     5    32 1   
    14     5    52 1   
    15     6    22 ar  
    16     6    52 1   
    17     7    22 ar  
    18     7    23 1   
    19     7    24 ar  
    20     8    24 ar  
    21     8    25 1   
    22     9    10 ar  
    23     9    35 1   
    24    10    11 1   
    25    10    18 ar  
    26    11    12 ar  
    27    11    17 ar  
    28    12    13 ar  
    29    12    36 1   
    30    13    14 ar  
    31    13    37 1   
    32    14    15 1   
    33    14    16 ar  
    34    15    26 1   
    35    15    27 2   
    36    16    17 ar  
    37    16    38 1   
    38    17    39 1   
    39    18    19 ar  
    40    18    40 1   
    41    19    20 ar  
    42    19    41 1   
    43    20    28 1   
    44    21    42 1   
    45    21    43 1   
    46    21    44 1   
    47    23    45 1   
    48    23    46 1   
    49    25    47 1   
    50    25    48 1   
    51    26    49 1   
    52    26    50 1   
    53    33    52 1   
    54    34    52 1   
@<TRIPOS>SUBSTRUCTURE
     1 4SI         1 TEMP              0 ****  ****    0 ROOT
