@<TRIPOS>MOLECULE
4SJ
   31    31     1     0     0
SMALL
No Charge or Current Charge


@<TRIPOS>ATOM
      1 CD1         -0.8080    38.4180    19.4790 ca         1 4SJ      -0.113000
      2 CG          -2.1740    38.0520    19.5720 ca         1 4SJ      -0.044300
      3 CD2         -2.9820    38.7580    20.5010 ca         1 4SJ      -0.113000
      4 CB          -2.7320    36.9220    18.6540 c3         1 4SJ       0.015300
      5 CA          -2.6020    37.3810    17.1510 c3         1 4SJ       0.044500
      6 C           -2.9590    36.2350    16.1050 c          1 4SJ       0.720000
      7 CE1         -0.2700    39.4360    20.2850 ca         1 4SJ      -0.123500
      8 O           -4.1300    36.0320    15.8020 o          1 4SJ      -0.723500
      9 N           -3.3010    38.7010    16.9370 n7         1 4SJ      -0.830400
     10 CN          -3.0030    39.3770    15.6620 c3         1 4SJ       0.161100
     11 CB1         -1.8860    35.6370    18.8940 c3         1 4SJ      -0.070100
     12 CB2         -4.2110    36.5580    18.9950 c3         1 4SJ      -0.070100
     13 CZ          -1.0850    40.1140    21.2010 ca         1 4SJ      -0.138000
     14 CE2         -2.4400    39.7750    21.3060 ca         1 4SJ      -0.123500
     15 H1          -0.1510    37.9170    18.7740 ha         1 4SJ       0.117500
     16 H3          -4.0390    38.5380    20.6170 ha         1 4SJ       0.117500
     17 H5          -1.5320    37.5730    16.9910 h1         1 4SJ       0.005700
     18 H6           0.7820    39.6980    20.1960 ha         1 4SJ       0.095000
     19 H32         -3.0120    39.3260    17.6980 hn         1 4SJ       0.369000
     20 H34         -3.5440    40.3300    15.5980 h1         1 4SJ       0.014367
     21 H35         -1.9280    39.5870    15.5760 h1         1 4SJ       0.014367
     22 H36         -3.3030    38.7550    14.8080 h1         1 4SJ       0.014367
     23 H37         -1.8580    35.3880    19.9610 hc         1 4SJ       0.032867
     24 H38         -2.3080    34.7750    18.3630 hc         1 4SJ       0.032867
     25 H39         -0.8530    35.7600    18.5490 hc         1 4SJ       0.032867
     26 H40         -4.3100    36.2760    20.0510 hc         1 4SJ       0.032867
     27 H41         -4.8910    37.3950    18.7970 hc         1 4SJ       0.032867
     28 H42         -4.5590    35.7030    18.4050 hc         1 4SJ       0.032867
     29 H43         -0.6680    40.9020    21.8240 ha         1 4SJ       0.093000
     30 H44         -3.0770    40.3030    22.0130 ha         1 4SJ       0.095000
     31 OXT         -2.0310    35.6740    15.5340 o          1 4SJ      -0.723500
@<TRIPOS>BOND
     1     1     2 ar  
     2     1     7 ar  
     3     1    15 1   
     4     2     3 ar  
     5     2     4 1   
     6     3    14 ar  
     7     3    16 1   
     8     4     5 1   
     9     4    11 1   
    10     4    12 1   
    11     5     6 1   
    12     5     9 1   
    13     5    17 1   
    14     6     8 1   
    15     6    31 1   
    16     7    13 ar  
    17     7    18 1   
    18     9    10 1   
    19     9    19 1   
    20    10    20 1   
    21    10    21 1   
    22    10    22 1   
    23    11    23 1   
    24    11    24 1   
    25    11    25 1   
    26    12    26 1   
    27    12    27 1   
    28    12    28 1   
    29    13    14 ar  
    30    13    29 1   
    31    14    30 1   
@<TRIPOS>SUBSTRUCTURE
     1 4SJ         1 TEMP              0 ****  ****    0 ROOT
