@<TRIPOS>MOLECULE
4SJ
   31    31     1     0     0
SMALL
bcc


@<TRIPOS>ATOM
      1 CD1         -0.8160    38.4040    19.4900 ca         1 4SJ      -0.131000
      2 CG          -2.1670    38.0450    19.5470 ca         1 4SJ      -0.044300
      3 CD2         -2.9750    38.7450    20.4410 ca         1 4SJ      -0.131000
      4 CB          -2.7010    36.9360    18.6370 c3         1 4SJ       0.015300
      5 CA          -2.5630    37.4220    17.1610 c3         1 4SJ       0.044500
      6 C           -3.0020    36.3300    16.1440 c          1 4SJ       0.930600
      7 CE1         -0.2970    39.4070    20.2930 ca         1 4SJ      -0.141500
      8 O           -4.2050    36.2800    15.8250 o          1 4SJ      -0.828800
      9 N           -3.3010    38.6570    16.9740 n7         1 4SJ      -0.775200
     10 CN          -3.0110    39.3070    15.7140 c3         1 4SJ       0.161100
     11 CB1         -1.8570    35.6760    18.8710 c3         1 4SJ      -0.070100
     12 CB2         -4.1520    36.5890    18.9700 c3         1 4SJ      -0.070100
     13 CZ          -1.1190    40.0910    21.1810 ca         1 4SJ      -0.156000
     14 CE2         -2.4610    39.7540    21.2490 ca         1 4SJ      -0.141500
     15 H1          -0.1510    37.8940    18.8030 ha         1 4SJ       0.135500
     16 H3          -4.0280    38.5130    20.5220 ha         1 4SJ       0.135500
     17 H5          -1.4840    37.5830    16.9890 h1         1 4SJ       0.005700
     18 H6           0.7540    39.6580    20.2240 ha         1 4SJ       0.113000
     19 H32         -3.0540    39.2980    17.7180 hn         1 4SJ       0.313800
     20 H34         -3.4750    40.2940    15.6960 h1         1 4SJ       0.014367
     21 H35         -1.9360    39.4420    15.5180 h1         1 4SJ       0.014367
     22 H36         -3.4270    38.7370    14.8830 h1         1 4SJ       0.014367
     23 H37         -1.8590    35.4150    19.9310 hc         1 4SJ       0.032867
     24 H38         -2.2570    34.8260    18.3200 hc         1 4SJ       0.032867
     25 H39         -0.8190    35.8050    18.5610 hc         1 4SJ       0.032867
     26 H40         -4.2520    36.3000    20.0180 hc         1 4SJ       0.032867
     27 H41         -4.8360    37.4150    18.7790 hc         1 4SJ       0.032867
     28 H42         -4.4860    35.7460    18.3670 hc         1 4SJ       0.032867
     29 H43         -0.7160    40.8750    21.8090 ha         1 4SJ       0.111000
     30 H44         -3.1190    40.2770    21.9310 ha         1 4SJ       0.113000
     31 OXT         -2.0930    35.5780    15.7330 o          1 4SJ      -0.828800
@<TRIPOS>BOND
     1     1     2 ar  
     2     1     7 ar  
     3     1    15 1   
     4     2     3 ar  
     5     2     4 1   
     6     3    14 ar  
     7     3    16 1   
     8     4     5 1   
     9     4    11 1   
    10     4    12 1   
    11     5     6 1   
    12     5     9 1   
    13     5    17 1   
    14     6     8 1   
    15     6    31 1   
    16     7    13 ar  
    17     7    18 1   
    18     9    10 1   
    19     9    19 1   
    20    10    20 1   
    21    10    21 1   
    22    10    22 1   
    23    11    23 1   
    24    11    24 1   
    25    11    25 1   
    26    12    26 1   
    27    12    27 1   
    28    12    28 1   
    29    13    14 ar  
    30    13    29 1   
    31    14    30 1   
@<TRIPOS>SUBSTRUCTURE
     1 4SJ         1 TEMP              0 ****  ****    0 ROOT
