@<TRIPOS>MOLECULE
4SL
   76    76     1     0     0
SMALL
abcg2


@<TRIPOS>ATOM
      1 C4           5.2210     2.4080    -0.6900 ca         1 4SL      -0.112500
      2 C5           4.5960     1.3010    -0.1070 ca         1 4SL      -0.064300
      3 C6           4.9730     0.9760     1.1970 ca         1 4SL      -0.112500
      4 C7           3.5100     0.5540    -0.8960 c3         1 4SL       0.009300
      5 C8           3.1490    -0.7800    -0.1910 c3         1 4SL       0.105500
      6 C9           1.8750    -1.4060    -0.7700 c          1 4SL       0.602100
      7 C3           6.1810     3.1460    -0.0140 ca         1 4SL      -0.110500
      8 O19          1.8490    -1.9750    -1.8500 o          1 4SL      -0.603100
      9 N17          4.2230    -1.7390    -0.2770 n7         1 4SL      -0.853400
     10 C18          4.1250    -2.7970     0.7060 c3         1 4SL       0.146100
     11 C15          2.2720     1.4650    -0.9430 c3         1 4SL      -0.085100
     12 C16          3.9900     0.2910    -2.3310 c3         1 4SL      -0.085100
     13 C2           6.5510     2.7970     1.2780 ca         1 4SL      -0.118000
     14 C1           5.9380     1.7100     1.8790 ca         1 4SL      -0.110500
     15 N10          0.7990    -1.2720     0.0250 ns         1 4SL      -0.493900
     16 C11         -0.5540    -1.5930    -0.3690 c3         1 4SL       0.036700
     17 C20         -1.0890    -2.8870     0.3140 c3         1 4SL      -0.040000
     18 C22         -2.5020    -3.1890    -0.1900 c3         1 4SL      -0.088100
     19 C23         -0.1680    -4.0430    -0.0810 c3         1 4SL      -0.088100
     20 C21         -1.1260    -2.7780     1.8380 c3         1 4SL      -0.088100
     21 C12         -1.3960    -0.3600    -0.0320 c          1 4SL       0.594100
     22 O24         -1.2060     0.1820     1.0530 o          1 4SL      -0.606100
     23 C14         -3.2610     1.1190    -0.4960 c3         1 4SL       0.146900
     24 O30         -4.7750    -1.2970     2.1260 o          1 4SL      -0.719500
     25 C29         -4.9010    -0.1240     1.7250 c          1 4SL       0.706200
     26 O31         -4.7080     0.9190     2.3790 o          1 4SL      -0.719500
     27 C28         -6.7370    -0.5590     0.0120 c3         1 4SL      -0.043900
     28 C26         -4.6590     0.5910    -0.6710 c2         1 4SL      -0.304200
     29 C32         -3.0410     2.4580    -1.2170 c3         1 4SL      -0.060700
     30 C34         -3.9660     3.5100    -0.6120 c3         1 4SL      -0.082100
     31 C33         -1.5860     2.9060    -1.1350 c3         1 4SL      -0.082100
     32 N13         -2.3000     0.0900    -0.9210 n          1 4SL      -0.388800
     33 C25         -2.4770    -0.4390    -2.2590 c3         1 4SL       0.095300
     34 H1           4.9550     2.7160    -1.6930 ha         1 4SL       0.112500
     35 H3           4.5220     0.1450     1.7210 ha         1 4SL       0.112500
     36 H5           2.9160    -0.5320     0.8590 h1         1 4SL       0.027700
     37 H6           6.6400     3.9960    -0.5030 ha         1 4SL       0.107000
     38 H32          5.1130    -1.2700    -0.1750 hn         1 4SL       0.417000
     39 H34          3.2680    -3.4420     0.4970 h1         1 4SL       0.029367
     40 H35          5.0150    -3.4220     0.6610 h1         1 4SL       0.029367
     41 H36          4.0150    -2.4350     1.7380 h1         1 4SL       0.029367
     42 H37          1.4820     1.0440    -1.5670 hc         1 4SL       0.044367
     43 H38          1.8590     1.6460     0.0510 hc         1 4SL       0.044367
     44 H39          2.5330     2.4340    -1.3700 hc         1 4SL       0.044367
     45 H40          4.1880     1.2250    -2.8550 hc         1 4SL       0.044367
     46 H41          4.9040    -0.3010    -2.3530 hc         1 4SL       0.044367
     47 H42          3.2320    -0.2410    -2.9000 hc         1 4SL       0.044367
     48 H43          7.3020     3.3670     1.8080 ha         1 4SL       0.107000
     49 H44          6.2060     1.4230     2.8870 ha         1 4SL       0.107000
     50 H31          0.8980    -0.7620     0.8890 hn         1 4SL       0.330500
     51 H4          -0.5340    -1.7920    -1.4380 h1         1 4SL       0.076700
     52 H22         -2.5280    -3.3030    -1.2760 hc         1 4SL       0.039144
     53 H23         -2.8530    -4.1280     0.2420 hc         1 4SL       0.039144
     54 H24         -3.2180    -2.4170     0.1000 hc         1 4SL       0.039144
     55 H25         -0.1090    -4.1610    -1.1650 hc         1 4SL       0.039144
     56 H26          0.8470    -3.9030     0.2950 hc         1 4SL       0.039144
     57 H27         -0.5440    -4.9780     0.3380 hc         1 4SL       0.039144
     58 H28         -1.3770    -3.7530     2.2610 hc         1 4SL       0.039144
     59 H29         -0.1610    -2.4860     2.2570 hc         1 4SL       0.039144
     60 H30         -1.8830    -2.0720     2.1790 hc         1 4SL       0.039144
     61 H2          -3.0770     1.2880     0.5610 h1         1 4SL       0.128700
     62 H8          -7.5040    -0.1110     0.6490 hc         1 4SL       0.026033
     63 H9          -7.0370    -0.4120    -1.0260 hc         1 4SL       0.026033
     64 H10         -6.7450    -1.6300     0.2210 hc         1 4SL       0.026033
     65 H11         -5.0690     0.6340    -1.6790 ha         1 4SL       0.128000
     66 H12         -3.3090     2.3460    -2.2750 hc         1 4SL       0.023700
     67 H13         -3.7720     3.6280     0.4560 hc         1 4SL       0.030367
     68 H14         -3.8180     4.4800    -1.0890 hc         1 4SL       0.030367
     69 H15         -5.0170     3.2410    -0.7270 hc         1 4SL       0.030367
     70 H16         -0.9140     2.2120    -1.6410 hc         1 4SL       0.030367
     71 H17         -1.4560     3.8850    -1.6000 hc         1 4SL       0.030367
     72 H18         -1.2580     2.9830    -0.0960 hc         1 4SL       0.030367
     73 H19         -3.1630    -1.2860    -2.2870 h1         1 4SL       0.031033
     74 H20         -2.8860     0.3410    -2.8970 h1         1 4SL       0.031033
     75 H21         -1.5320    -0.7380    -2.7050 h1         1 4SL       0.031033
     76 C27         -5.3850     0.0250     0.2920 ce         1 4SL      -0.122400
@<TRIPOS>BOND
     1     1     2 ar  
     2     1     7 ar  
     3     1    34 1   
     4     2     3 ar  
     5     2     4 1   
     6     3    14 ar  
     7     3    35 1   
     8     4     5 1   
     9     4    11 1   
    10     4    12 1   
    11     5     6 1   
    12     5     9 1   
    13     5    36 1   
    14     6     8 2   
    15     6    15 1   
    16     7    13 ar  
    17     7    37 1   
    18     9    10 1   
    19     9    38 1   
    20    10    39 1   
    21    10    40 1   
    22    10    41 1   
    23    11    42 1   
    24    11    43 1   
    25    11    44 1   
    26    12    45 1   
    27    12    46 1   
    28    12    47 1   
    29    13    14 ar  
    30    13    48 1   
    31    14    49 1   
    32    15    16 1   
    33    15    50 1   
    34    16    17 1   
    35    16    21 1   
    36    16    51 1   
    37    17    18 1   
    38    17    19 1   
    39    17    20 1   
    40    18    52 1   
    41    18    53 1   
    42    18    54 1   
    43    19    55 1   
    44    19    56 1   
    45    19    57 1   
    46    20    58 1   
    47    20    59 1   
    48    20    60 1   
    49    21    22 2   
    50    21    32 1   
    51    23    28 1   
    52    23    29 1   
    53    23    32 1   
    54    23    61 1   
    55    24    25 1   
    56    25    26 1   
    57    25    76 1   
    58    27    62 1   
    59    27    63 1   
    60    27    64 1   
    61    27    76 1   
    62    28    65 1   
    63    28    76 2   
    64    29    30 1   
    65    29    31 1   
    66    29    66 1   
    67    30    67 1   
    68    30    68 1   
    69    30    69 1   
    70    31    70 1   
    71    31    71 1   
    72    31    72 1   
    73    32    33 1   
    74    33    73 1   
    75    33    74 1   
    76    33    75 1   
@<TRIPOS>SUBSTRUCTURE
     1 4SL         1 TEMP              0 ****  ****    0 ROOT
