@<TRIPOS>MOLECULE
4SL
   76    76     1     0     0
SMALL
No Charge or Current Charge


@<TRIPOS>ATOM
      1 C4           6.2280     1.5130    -0.7230 ca         1 4SL      -0.112500
      2 C5           4.9580     1.3230    -0.1180 ca         1 4SL      -0.064300
      3 C6           4.8370     1.6160     1.2630 ca         1 4SL      -0.112500
      4 C7           3.7220     0.7900    -0.9030 c3         1 4SL       0.009300
      5 C8           3.3140    -0.6080    -0.3000 c3         1 4SL       0.105500
      6 C9           1.9630    -1.1700    -0.8900 c          1 4SL       0.602100
      7 C3           7.3210     1.9860     0.0240 ca         1 4SL      -0.110500
      8 O19          1.8650    -1.7220    -1.9810 o          1 4SL      -0.603100
      9 N17          4.4680    -1.5680    -0.3630 n7         1 4SL      -0.853400
     10 C18          4.3040    -2.8170     0.4040 c3         1 4SL       0.146100
     11 C15          2.5540     1.8080    -0.7300 c3         1 4SL      -0.085100
     12 C16          3.9960     0.6750    -2.4350 c3         1 4SL      -0.085100
     13 C2           7.1750     2.2760     1.3870 ca         1 4SL      -0.118000
     14 C1           5.9320     2.0880     2.0060 ca         1 4SL      -0.110500
     15 N10          0.8740    -1.0260    -0.0520 ns         1 4SL      -0.493900
     16 C11         -0.5210    -1.4130    -0.3760 c3         1 4SL       0.036700
     17 C20         -0.9400    -2.7500     0.3480 c3         1 4SL      -0.040000
     18 C22         -2.3760    -3.1820    -0.0540 c3         1 4SL      -0.088100
     19 C23          0.0270    -3.8990    -0.0570 c3         1 4SL      -0.088100
     20 C21         -0.8900    -2.5890     1.8940 c3         1 4SL      -0.088100
     21 C12         -1.4500    -0.1880    -0.0500 c          1 4SL       0.594100
     22 O24         -1.1810     0.5510     0.8940 o          1 4SL      -0.606100
     23 C14         -3.6330     1.0330    -0.4070 c3         1 4SL       0.146900
     24 O30         -6.1100    -1.4910     2.3360 o          1 4SL      -0.719500
     25 C29         -5.3460    -0.7770     1.7000 c          1 4SL       0.706200
     26 O31         -4.2930    -0.3860     2.1750 o          1 4SL      -0.719500
     27 C28         -7.1220    -0.8540    -0.1770 c3         1 4SL      -0.043900
     28 C26         -5.0190     0.4150    -0.5710 c2         1 4SL      -0.304200
     29 C32         -3.5250     2.4130    -1.1380 c3         1 4SL      -0.060700
     30 C34         -4.5550     3.4340    -0.5920 c3         1 4SL      -0.082100
     31 C33         -2.0990     3.0180    -1.0870 c3         1 4SL      -0.082100
     32 N13         -2.6050     0.0480    -0.8430 n          1 4SL      -0.388800
     33 C25         -2.6730    -0.4330    -2.2440 c3         1 4SL       0.095300
     34 H1           6.3960     1.2970    -1.7730 ha         1 4SL       0.112500
     35 H3           3.8900     1.4740     1.7770 ha         1 4SL       0.112500
     36 H5           3.1050    -0.4320     0.7640 h1         1 4SL       0.027700
     37 H6           8.2860     2.1270    -0.4590 ha         1 4SL       0.107000
     38 H32          5.2940    -1.0760     0.0020 hn         1 4SL       0.417000
     39 H34          3.4510    -3.4000     0.0300 h1         1 4SL       0.029367
     40 H35          5.2030    -3.4420     0.3180 h1         1 4SL       0.029367
     41 H36          4.1370    -2.6050     1.4680 h1         1 4SL       0.029367
     42 H37          1.6950     1.5450    -1.3600 hc         1 4SL       0.044367
     43 H38          2.1990     1.8520     0.3050 hc         1 4SL       0.044367
     44 H39          2.8770     2.8150    -1.0180 hc         1 4SL       0.044367
     45 H40          4.3270     1.6370    -2.8450 hc         1 4SL       0.044367
     46 H41          4.7650    -0.0750    -2.6540 hc         1 4SL       0.044367
     47 H42          3.0930     0.3890    -2.9850 hc         1 4SL       0.044367
     48 H43          8.0220     2.6420     1.9630 ha         1 4SL       0.107000
     49 H44          5.8140     2.3070     3.0650 ha         1 4SL       0.107000
     50 H31          1.0340    -0.5480     0.8270 hn         1 4SL       0.330500
     51 H4          -0.5720    -1.5910    -1.4560 h1         1 4SL       0.076700
     52 H22         -2.4430    -3.3700    -1.1320 hc         1 4SL       0.039144
     53 H23         -2.6610    -4.1100     0.4570 hc         1 4SL       0.039144
     54 H24         -3.1180    -2.4220     0.2150 hc         1 4SL       0.039144
     55 H25          0.0600    -4.0180    -1.1470 hc         1 4SL       0.039144
     56 H26          1.0470    -3.7080     0.2960 hc         1 4SL       0.039144
     57 H27         -0.2940    -4.8540     0.3760 hc         1 4SL       0.039144
     58 H28         -1.1510    -3.5300     2.3920 hc         1 4SL       0.039144
     59 H29          0.1110    -2.3000     2.2350 hc         1 4SL       0.039144
     60 H30         -1.6000    -1.8270     2.2380 hc         1 4SL       0.039144
     61 H2          -3.4770     1.2550     0.6560 h1         1 4SL       0.128700
     62 H8          -7.9190    -0.5050     0.4890 hc         1 4SL       0.026033
     63 H9          -7.3730    -0.5080    -1.1870 hc         1 4SL       0.026033
     64 H10         -7.1560    -1.9500    -0.1960 hc         1 4SL       0.026033
     65 H11         -5.4430     0.6360    -1.5510 ha         1 4SL       0.128000
     66 H12         -3.7630     2.2590    -2.1980 hc         1 4SL       0.023700
     67 H13         -4.3870     3.6220     0.4750 hc         1 4SL       0.030367
     68 H14         -4.4740     4.3890    -1.1240 hc         1 4SL       0.030367
     69 H15         -5.5810     3.0700    -0.7200 hc         1 4SL       0.030367
     70 H16         -1.3700     2.3590    -1.5720 hc         1 4SL       0.030367
     71 H17         -2.0700     3.9820    -1.6090 hc         1 4SL       0.030367
     72 H18         -1.7820     3.1830    -0.0500 hc         1 4SL       0.030367
     73 H19         -2.8470    -1.5140    -2.2660 h1         1 4SL       0.031033
     74 H20         -3.4910     0.0560    -2.7880 h1         1 4SL       0.031033
     75 H21         -1.7330    -0.2030    -2.7610 h1         1 4SL       0.031033
     76 C27         -5.7550    -0.3540     0.2870 ce         1 4SL      -0.122400
@<TRIPOS>BOND
     1     1     2 ar  
     2     1     7 ar  
     3     1    34 1   
     4     2     3 ar  
     5     2     4 1   
     6     3    14 ar  
     7     3    35 1   
     8     4     5 1   
     9     4    11 1   
    10     4    12 1   
    11     5     6 1   
    12     5     9 1   
    13     5    36 1   
    14     6     8 2   
    15     6    15 1   
    16     7    13 ar  
    17     7    37 1   
    18     9    10 1   
    19     9    38 1   
    20    10    39 1   
    21    10    40 1   
    22    10    41 1   
    23    11    42 1   
    24    11    43 1   
    25    11    44 1   
    26    12    45 1   
    27    12    46 1   
    28    12    47 1   
    29    13    14 ar  
    30    13    48 1   
    31    14    49 1   
    32    15    16 1   
    33    15    50 1   
    34    16    17 1   
    35    16    21 1   
    36    16    51 1   
    37    17    18 1   
    38    17    19 1   
    39    17    20 1   
    40    18    52 1   
    41    18    53 1   
    42    18    54 1   
    43    19    55 1   
    44    19    56 1   
    45    19    57 1   
    46    20    58 1   
    47    20    59 1   
    48    20    60 1   
    49    21    22 2   
    50    21    32 1   
    51    23    28 1   
    52    23    29 1   
    53    23    32 1   
    54    23    61 1   
    55    24    25 1   
    56    25    26 1   
    57    25    76 1   
    58    27    62 1   
    59    27    63 1   
    60    27    64 1   
    61    27    76 1   
    62    28    65 1   
    63    28    76 2   
    64    29    30 1   
    65    29    31 1   
    66    29    66 1   
    67    30    67 1   
    68    30    68 1   
    69    30    69 1   
    70    31    70 1   
    71    31    71 1   
    72    31    72 1   
    73    32    33 1   
    74    33    73 1   
    75    33    74 1   
    76    33    75 1   
@<TRIPOS>SUBSTRUCTURE
     1 4SL         1 TEMP              0 ****  ****    0 ROOT
