@<TRIPOS>MOLECULE
4SN
   69    69     1     0     0
SMALL
No Charge or Current Charge


@<TRIPOS>ATOM
      1 C1           2.0050     1.2050     0.2180 c6         1 4SN      -0.089700
      2 C2           3.4690     1.2800     0.7300 c6         1 4SN       0.157300
      3 C3           4.1220    -0.1430     0.6400 c6         1 4SN       0.167300
      4 C4           3.2600    -1.1680     1.4400 c6         1 4SN       0.148300
      5 O2           4.2270     2.2680    -0.0010 os         1 4SN      -0.445100
      6 CBJ          5.4230     2.7320     0.4790 c          1 4SN       0.609100
      7 OBL          5.8990     2.4210     1.5620 o          1 4SN      -0.471000
      8 O3           4.2480    -0.5780    -0.7400 os         1 4SN      -0.450100
      9 CBC          5.3450    -0.2670    -1.4960 c          1 4SN       0.610100
     10 OBH          6.3570     0.2680    -1.0690 o          1 4SN      -0.476000
     11 CBD          5.2050    -0.7970    -2.9140 c3         1 4SN      -0.156100
     12 O4           3.8410    -2.4940     1.3490 os         1 4SN      -0.446100
     13 CAZ          3.4390    -3.5050     2.1800 c          1 4SN       0.594100
     14 OBF          2.6130    -3.3810     3.0720 o          1 4SN      -0.472000
     15 CBB          4.1710    -4.8030     1.8770 c3         1 4SN      -0.156100
     16 C5           1.7590    -1.1330     0.9980 c6         1 4SN       0.148300
     17 CAY         -0.4560    -2.3780    -1.7390 c          1 4SN       0.591100
     18 OBE          0.2440    -2.8130    -2.6420 o          1 4SN      -0.482000
     19 CBA         -1.9780    -2.3780    -1.7710 c3         1 4SN      -0.157100
     20 O5           1.2770     0.2360     1.0360 os         1 4SN      -0.416000
     21 SAL          1.1600     2.8590     0.2410 s6         1 4SN       1.219100
     22 OAM          0.9290     3.2890     1.6240 o          1 4SN      -0.514500
     23 OAN          1.7900     3.7820    -0.7070 o          1 4SN      -0.514500
     24 NAK         -0.3570     2.5550    -0.4110 n7         1 4SN      -0.898300
     25 CAJ         -1.3460     1.7840     0.3640 c3         1 4SN       0.219800
     26 CAI         -2.6440     1.6490    -0.4540 c3         1 4SN      -0.083400
     27 CAH         -3.7210     0.8020     0.2610 c3         1 4SN      -0.080400
     28 CAG         -5.0070     0.6290    -0.5780 c3         1 4SN      -0.083400
     29 CAF         -6.0800    -0.2210     0.1300 c3         1 4SN       0.206600
     30 OAA         -7.2060    -0.3050    -0.7560 os         1 4SN      -0.567700
     31 SAB         -8.4820    -1.1780    -0.2410 s6         1 4SN       1.397800
     32 OAC         -8.9350    -2.0660    -1.3070 o          1 4SN      -0.553000
     33 OAD         -8.3130    -1.6160     1.1440 o          1 4SN      -0.553000
     34 NAE         -9.5160     0.0560    -0.2470 n8         1 4SN      -1.055100
     35 H1           1.9820     0.9310    -0.8440 h2         1 4SN       0.086700
     36 H2           3.4360     1.5850     1.7880 h1         1 4SN       0.106700
     37 H3           5.1190    -0.1230     1.1050 h1         1 4SN       0.096700
     38 H4           3.2980    -0.8590     2.4960 h1         1 4SN       0.091700
     39 H7           6.1940     3.2860    -1.4380 hc         1 4SN       0.074367
     40 H8           5.3000     4.5260    -0.6820 hc         1 4SN       0.074367
     41 H9           6.9720     4.1810    -0.0630 hc         1 4SN       0.074367
     42 H10          4.9360    -1.8570    -2.8690 hc         1 4SN       0.072367
     43 H11          4.3150    -0.3500    -3.3690 hc         1 4SN       0.072367
     44 H12          6.1040    -0.6290    -3.5170 hc         1 4SN       0.072367
     45 H13          5.2490    -4.6150     1.9150 hc         1 4SN       0.075033
     46 H14          3.8740    -5.6200     2.5440 hc         1 4SN       0.075033
     47 H15          4.0160    -5.0560     0.8230 hc         1 4SN       0.075033
     48 H16          1.1750    -1.7040     1.7330 h1         1 4SN       0.106700
     49 H17         -2.3290    -1.3460    -1.6690 hc         1 4SN       0.070033
     50 H18         -2.3810    -2.8540    -2.6720 hc         1 4SN       0.070033
     51 H19         -2.3540    -2.8440    -0.8540 hc         1 4SN       0.070033
     52 H20         -0.1080     2.0160    -1.2370 hn         1 4SN       0.486000
     53 H21         -0.9870     0.7740     0.5990 h1         1 4SN       0.065200
     54 H22         -1.5760     2.2860     1.3150 h1         1 4SN       0.065200
     55 H23         -3.0450     2.6500    -0.6590 hc         1 4SN       0.049700
     56 H24         -2.4130     1.1910    -1.4240 hc         1 4SN       0.049700
     57 H25         -3.3070    -0.1870     0.4930 hc         1 4SN       0.044700
     58 H26         -3.9740     1.2750     1.2180 hc         1 4SN       0.044700
     59 H27         -5.4280     1.6160    -0.8050 hc         1 4SN       0.060200
     60 H28         -4.7560     0.1560    -1.5350 hc         1 4SN       0.060200
     61 H29         -5.6700    -1.2180     0.3460 h1         1 4SN       0.054700
     62 H30         -6.3560     0.2580     1.0790 h1         1 4SN       0.054700
     63 H31         -8.9080     0.7170    -0.7230 hn         1 4SN       0.485000
     64 H32        -10.1360    -0.2730    -0.9810 hn         1 4SN       0.485000
     65 C6           1.4530    -1.7610    -0.4000 c3         1 4SN       0.142600
     66 O6           0.0220    -1.8380    -0.5760 os         1 4SN      -0.456100
     67 CBK          6.0440     3.7540    -0.4590 c3         1 4SN      -0.147100
     68 H5           1.9090    -1.1650    -1.1990 h1         1 4SN       0.068200
     69 H6           1.8950    -2.7650    -0.4370 h1         1 4SN       0.068200
@<TRIPOS>BOND
     1     1     2 1   
     2     1    20 1   
     3     1    21 1   
     4     1    35 1   
     5     2     3 1   
     6     2     5 1   
     7     2    36 1   
     8     3     4 1   
     9     3     8 1   
    10     3    37 1   
    11     4    12 1   
    12     4    16 1   
    13     4    38 1   
    14     5     6 1   
    15     6     7 2   
    16     6    67 1   
    17     8     9 1   
    18     9    10 2   
    19     9    11 1   
    20    11    42 1   
    21    11    43 1   
    22    11    44 1   
    23    12    13 1   
    24    13    14 2   
    25    13    15 1   
    26    15    45 1   
    27    15    46 1   
    28    15    47 1   
    29    16    20 1   
    30    16    48 1   
    31    16    65 1   
    32    17    18 2   
    33    17    19 1   
    34    17    66 1   
    35    19    49 1   
    36    19    50 1   
    37    19    51 1   
    38    21    22 2   
    39    21    23 2   
    40    21    24 1   
    41    24    25 1   
    42    24    52 1   
    43    25    26 1   
    44    25    53 1   
    45    25    54 1   
    46    26    27 1   
    47    26    55 1   
    48    26    56 1   
    49    27    28 1   
    50    27    57 1   
    51    27    58 1   
    52    28    29 1   
    53    28    59 1   
    54    28    60 1   
    55    29    30 1   
    56    29    61 1   
    57    29    62 1   
    58    30    31 1   
    59    31    32 2   
    60    31    33 2   
    61    31    34 1   
    62    34    63 1   
    63    34    64 1   
    64    39    67 1   
    65    40    67 1   
    66    41    67 1   
    67    65    66 1   
    68    65    68 1   
    69    65    69 1   
@<TRIPOS>SUBSTRUCTURE
     1 4SN         1 TEMP              0 ****  ****    0 ROOT
