@<TRIPOS>MOLECULE
4SN
   69    69     1     0     0
SMALL
bcc


@<TRIPOS>ATOM
      1 C1           2.0480     0.9480     0.1350 c6         1 4SN      -0.002100
      2 C2           3.4310     1.1410     0.7550 c6         1 4SN       0.134100
      3 C3           4.1530    -0.2050     0.7740 c6         1 4SN       0.144100
      4 C4           3.2800    -1.2620     1.4370 c6         1 4SN       0.125100
      5 O2           4.1990     2.0260    -0.0320 os         1 4SN      -0.421900
      6 CBJ          4.4950     3.2470     0.4410 c          1 4SN       0.658100
      7 OBL          4.1880     3.6220     1.5410 o          1 4SN      -0.520000
      8 O3           4.4140    -0.5960    -0.5640 os         1 4SN      -0.426900
      9 CBC          5.6710    -0.6110    -1.0300 c          1 4SN       0.659100
     10 OBH          6.6300    -0.3220    -0.3650 o          1 4SN      -0.525000
     11 CBD          5.6980    -1.0450    -2.4610 c3         1 4SN      -0.156100
     12 O4           3.9590    -2.4970     1.2900 os         1 4SN      -0.422900
     13 CAZ          3.7490    -3.4600     2.2000 c          1 4SN       0.643100
     14 OBF          2.9820    -3.3370     3.1170 o          1 4SN      -0.521000
     15 CBB          4.5760    -4.6700     1.9010 c3         1 4SN      -0.156100
     16 C5           1.8530    -1.3120     0.8700 c6         1 4SN       0.125100
     17 CAY         -0.0990    -2.4180    -1.9520 c          1 4SN       0.640100
     18 OBE          0.6490    -2.8980    -2.7650 o          1 4SN      -0.531000
     19 CBA         -1.5730    -2.2190    -2.1410 c3         1 4SN      -0.157100
     20 O5           1.3370     0.0090     0.8790 os         1 4SN      -0.369600
     21 SAL          1.0180     2.4490     0.2070 s6         1 4SN       1.249900
     22 OAM          0.7350     2.7130     1.6060 o          1 4SN      -0.585300
     23 OAN          1.6870     3.4460    -0.6120 o          1 4SN      -0.585300
     24 NAK         -0.3860     2.0840    -0.5350 n7         1 4SN      -0.843100
     25 CAJ         -1.4250     1.2560     0.0780 c3         1 4SN       0.219800
     26 CAI         -2.7380     1.4440    -0.6630 c3         1 4SN      -0.083400
     27 CAH         -3.8380     0.5950    -0.0380 c3         1 4SN      -0.080400
     28 CAG         -5.1540     0.6870    -0.8030 c3         1 4SN      -0.083400
     29 CAF         -6.2190    -0.1360    -0.1150 c3         1 4SN       0.183400
     30 OAA         -7.4270    -0.0510    -0.9050 os         1 4SN      -0.544500
     31 SAB         -8.8060    -0.4690    -0.2330 s6         1 4SN       1.539400
     32 OAC         -9.7430    -0.4320    -1.3320 o          1 4SN      -0.623800
     33 OAD         -8.6450    -1.6850     0.5350 o          1 4SN      -0.623800
     34 NAE         -9.0200     0.7470     0.8450 n8         1 4SN      -0.944700
     35 H1           2.1260     0.7040    -0.9320 h2         1 4SN       0.086700
     36 H2           3.3250     1.4970     1.7830 h1         1 4SN       0.106700
     37 H3           5.0830    -0.1050     1.3390 h1         1 4SN       0.096700
     38 H4           3.1980    -0.9910     2.4940 h1         1 4SN       0.091700
     39 H7           5.4540     3.5200    -1.4810 hc         1 4SN       0.074367
     40 H8           4.6910     4.9600    -0.7890 hc         1 4SN       0.074367
     41 H9           6.2030     4.3740    -0.1190 hc         1 4SN       0.074367
     42 H10          5.3650    -2.0800    -2.5430 hc         1 4SN       0.072367
     43 H11          5.0210    -0.4390    -3.0630 hc         1 4SN       0.072367
     44 H12          6.7050    -0.9670    -2.8610 hc         1 4SN       0.072367
     45 H13          5.6290    -4.4040     1.8090 hc         1 4SN       0.075033
     46 H14          4.4570    -5.4120     2.6850 hc         1 4SN       0.075033
     47 H15          4.2680    -5.1070     0.9500 hc         1 4SN       0.075033
     48 H16          1.2260    -1.8530     1.5820 h1         1 4SN       0.106700
     49 H17         -1.7610    -1.1750    -2.3990 hc         1 4SN       0.070033
     50 H18         -1.9400    -2.8390    -2.9540 hc         1 4SN       0.070033
     51 H19         -2.1290    -2.4400    -1.2320 hc         1 4SN       0.070033
     52 H20         -0.2900     1.9970    -1.5400 hn         1 4SN       0.430800
     53 H21         -1.1470     0.2010     0.0750 h1         1 4SN       0.065200
     54 H22         -1.5420     1.5660     1.1160 h1         1 4SN       0.065200
     55 H23         -3.0230     2.4980    -0.6510 hc         1 4SN       0.049700
     56 H24         -2.6110     1.1620    -1.7140 hc         1 4SN       0.049700
     57 H25         -3.5160    -0.4510     0.0030 hc         1 4SN       0.044700
     58 H26         -3.9910     0.9090     0.9990 hc         1 4SN       0.044700
     59 H27         -5.4770     1.7300    -0.8630 hc         1 4SN       0.060200
     60 H28         -5.0100     0.3310    -1.8270 hc         1 4SN       0.060200
     61 H29         -5.9190    -1.1830    -0.0400 h1         1 4SN       0.054700
     62 H30         -6.4040     0.2480     0.8910 h1         1 4SN       0.054700
     63 H31         -9.3510     1.6080     0.4240 hn         1 4SN       0.429800
     64 H32         -9.5980     0.4740     1.6310 hn         1 4SN       0.429800
     65 C6           1.7040    -1.9860    -0.4860 c3         1 4SN       0.119400
     66 O6           0.3060    -1.9650    -0.7680 os         1 4SN      -0.432900
     67 CBK          5.2570     4.0580    -0.5580 c3         1 4SN      -0.147100
     68 H5           2.2530    -1.4820    -1.2810 h1         1 4SN       0.068200
     69 H6           2.0670    -3.0140    -0.4310 h1         1 4SN       0.068200
@<TRIPOS>BOND
     1     1     2 1   
     2     1    20 1   
     3     1    21 1   
     4     1    35 1   
     5     2     3 1   
     6     2     5 1   
     7     2    36 1   
     8     3     4 1   
     9     3     8 1   
    10     3    37 1   
    11     4    12 1   
    12     4    16 1   
    13     4    38 1   
    14     5     6 1   
    15     6     7 2   
    16     6    67 1   
    17     8     9 1   
    18     9    10 2   
    19     9    11 1   
    20    11    42 1   
    21    11    43 1   
    22    11    44 1   
    23    12    13 1   
    24    13    14 2   
    25    13    15 1   
    26    15    45 1   
    27    15    46 1   
    28    15    47 1   
    29    16    20 1   
    30    16    48 1   
    31    16    65 1   
    32    17    18 2   
    33    17    19 1   
    34    17    66 1   
    35    19    49 1   
    36    19    50 1   
    37    19    51 1   
    38    21    22 2   
    39    21    23 2   
    40    21    24 1   
    41    24    25 1   
    42    24    52 1   
    43    25    26 1   
    44    25    53 1   
    45    25    54 1   
    46    26    27 1   
    47    26    55 1   
    48    26    56 1   
    49    27    28 1   
    50    27    57 1   
    51    27    58 1   
    52    28    29 1   
    53    28    59 1   
    54    28    60 1   
    55    29    30 1   
    56    29    61 1   
    57    29    62 1   
    58    30    31 1   
    59    31    32 2   
    60    31    33 2   
    61    31    34 1   
    62    34    63 1   
    63    34    64 1   
    64    39    67 1   
    65    40    67 1   
    66    41    67 1   
    67    65    66 1   
    68    65    68 1   
    69    65    69 1   
@<TRIPOS>SUBSTRUCTURE
     1 4SN         1 TEMP              0 ****  ****    0 ROOT
