@<TRIPOS>MOLECULE
4SO
   19    19     1     0     0
SMALL
No Charge or Current Charge


@<TRIPOS>ATOM
      1 OAA         -3.0740    -1.4520     0.6620 o          1 4SO      -0.571000
      2 OAB          4.0610     1.2330    -0.0870 o          1 4SO      -0.709000
      3 CAC          1.2220     1.2370    -0.0080 ca         1 4SO      -0.109500
      4 CAD         -0.1820     1.1720     0.0320 ca         1 4SO      -0.047000
      5 CAE         -0.8330    -0.0780     0.0740 ca         1 4SO      -0.287500
      6 SAF         -2.6290    -0.1680     0.1200 sy         1 4SO       1.119600
      7 NAG         -2.9950    -0.2260    -1.4720 n8         1 4SO      -1.000100
      8 CAI          2.0060     0.0590    -0.0090 ca         1 4SO      -0.078600
      9 CAJ          1.3400    -1.1890     0.0320 ca         1 4SO      -0.109500
     10 CAK         -0.0630    -1.2580     0.0730 ca         1 4SO      -0.047000
     11 OAL         -3.1860     1.1130     0.5510 o          1 4SO      -0.571000
     12 OAM          4.1650    -0.9120    -0.0500 o          1 4SO      -0.709000
     13 HAC          1.7010     2.2140    -0.0390 ha         1 4SO       0.134000
     14 HAD         -0.7570     2.0960     0.0320 ha         1 4SO       0.111500
     15 HNAG        -3.6110     0.5800    -1.5530 hn         1 4SO       0.459500
     16 HNAA        -2.1260     0.0860    -1.8980 hn         1 4SO       0.459500
     17 HAJ          1.9110    -2.1140     0.0320 ha         1 4SO       0.134000
     18 HAK         -0.5480    -2.2330     0.1010 ha         1 4SO       0.111500
     19 CAH          3.5270     0.1330    -0.0520 c          1 4SO       0.708600
@<TRIPOS>BOND
     1     1     6 2   
     2     2    19 1   
     3     3     4 ar  
     4     3     8 ar  
     5     3    13 1   
     6     4     5 ar  
     7     4    14 1   
     8     5     6 1   
     9     5    10 ar  
    10     6     7 1   
    11     6    11 2   
    12     7    15 1   
    13     7    16 1   
    14     8     9 ar  
    15     8    19 1   
    16     9    10 ar  
    17     9    17 1   
    18    10    18 1   
    19    12    19 1   
@<TRIPOS>SUBSTRUCTURE
     1 4SO         1 TEMP              0 ****  ****    0 ROOT
