@<TRIPOS>MOLECULE
4SO
   19    19     1     0     0
SMALL
bcc


@<TRIPOS>ATOM
      1 OAA         -3.0030    -1.1270     0.8380 o          1 4SO      -0.641800
      2 OAB          4.0910     1.1510     0.0430 o          1 4SO      -0.814300
      3 CAC          1.3040     1.2350     0.0890 ca         1 4SO      -0.127500
      4 CAD         -0.0830     1.2470     0.1110 ca         1 4SO      -0.065000
      5 CAE         -0.7640     0.0400     0.0550 ca         1 4SO      -0.287500
      6 SAF         -2.5320     0.0260     0.0850 sy         1 4SO       1.261200
      7 NAG         -2.8730    -0.3050    -1.4980 n8         1 4SO      -0.889700
      8 CAI          2.0100     0.0380     0.0160 ca         1 4SO      -0.078600
      9 CAJ          1.3000    -1.1600    -0.0350 ca         1 4SO      -0.127500
     10 CAK         -0.0840    -1.1690    -0.0170 ca         1 4SO      -0.065000
     11 OAL         -2.9850     1.3480     0.4990 o          1 4SO      -0.641800
     12 OAM          4.0880    -1.0770    -0.0740 o          1 4SO      -0.814300
     13 HAC          1.8450     2.1700     0.1330 ha         1 4SO       0.152000
     14 HAD         -0.6160     2.1850     0.1740 ha         1 4SO       0.129500
     15 HNAG        -3.8290    -0.6260    -1.6120 hn         1 4SO       0.404300
     16 HNAA        -2.6940     0.4840    -2.1120 hn         1 4SO       0.404300
     17 HAJ          1.8380    -2.0960    -0.0900 ha         1 4SO       0.152000
     18 HAK         -0.6220    -2.1080    -0.0590 ha         1 4SO       0.129500
     19 CAH          3.5380     0.0370    -0.0070 c          1 4SO       0.919200
@<TRIPOS>BOND
     1     1     6 2   
     2     2    19 1   
     3     3     4 ar  
     4     3     8 ar  
     5     3    13 1   
     6     4     5 ar  
     7     4    14 1   
     8     5     6 1   
     9     5    10 ar  
    10     6     7 1   
    11     6    11 2   
    12     7    15 1   
    13     7    16 1   
    14     8     9 ar  
    15     8    19 1   
    16     9    10 ar  
    17     9    17 1   
    18    10    18 1   
    19    12    19 1   
@<TRIPOS>SUBSTRUCTURE
     1 4SO         1 TEMP              0 ****  ****    0 ROOT
