@<TRIPOS>MOLECULE
4SP
   50    53     1     0     0
SMALL
bcc


@<TRIPOS>ATOM
      1 C2          -2.0450    -0.0870    -1.6110 ca         1 4SP       0.964900
      2 C8          -1.1390     0.0720    -5.8430 cc         1 4SP       0.392700
      3 C10          1.9130     0.4080    -1.1410 c3         1 4SP       0.145400
      4 C11          3.4210     0.4630    -1.2800 c6         1 4SP      -0.066700
      5 C12          4.0330     0.7070     0.1010 c6         1 4SP      -0.071400
      6 C13          5.5560     0.7450     0.0480 c6         1 4SP      -0.072400
      7 C14          6.1220    -0.5270    -0.5720 c6         1 4SP      -0.075400
      8 C15          5.5200    -0.7790    -1.9500 c6         1 4SP      -0.072400
      9 C16          3.9950    -0.8100    -1.9020 c6         1 4SP      -0.071400
     10 C19         -1.0410     0.1060     2.7540 ca         1 4SP       0.008000
     11 C20         -2.0840    -0.1930     3.6160 ca         1 4SP      -0.321500
     12 C21         -3.3460    -0.4920     3.1070 ca         1 4SP       0.008000
     13 C22         -3.5480    -0.4870     1.7460 ca         1 4SP      -0.205000
     14 N26         -2.6970     1.0900     5.8410 n8         1 4SP      -0.892700
     15 N1          -0.7280     0.0800    -1.4730 nb         1 4SP      -0.871000
     16 C6           0.0260     0.1810    -2.5500 ca         1 4SP       0.790600
     17 O6           1.3290     0.3360    -2.4470 os         1 4SP      -0.403100
     18 C5          -0.5610     0.1220    -3.8170 ca         1 4SP      -0.219200
     19 N7          -0.0800     0.1960    -5.1000 nd         1 4SP      -0.509100
     20 N9          -2.2900    -0.0800    -5.1250 na         1 4SP      -0.365000
     21 C4          -1.9440    -0.0510    -3.8140 ca         1 4SP       0.479800
     22 N3          -2.7250    -0.1600    -2.7480 nb         1 4SP      -0.797000
     23 N2          -2.8170    -0.2080    -0.4850 nu         1 4SP      -0.733300
     24 C17         -2.5010    -0.1890     0.8560 ca         1 4SP       0.246600
     25 C18         -1.2410     0.1110     1.3840 ca         1 4SP      -0.205000
     26 O24         -0.3920    -0.0770     5.5950 o          1 4SP      -0.619300
     27 O25         -2.4980    -1.3780     5.9380 o          1 4SP      -0.619300
     28 H8          -1.1500     0.0840    -6.9220 h5         1 4SP       0.069800
     29 H101         1.5390     1.3000    -0.6290 h1         1 4SP       0.052200
     30 H102         1.6180    -0.4670    -0.5550 h1         1 4SP       0.052200
     31 H11          3.6820     1.3160    -1.9190 hc         1 4SP       0.064700
     32 H121         3.6510     1.6420     0.5210 hc         1 4SP       0.043950
     33 H122         3.7170    -0.0930     0.7820 hc         1 4SP       0.043950
     34 H131         5.8780     1.6120    -0.5380 hc         1 4SP       0.040450
     35 H132         5.9560     0.8880     1.0550 hc         1 4SP       0.040450
     36 H141         7.2110    -0.4630    -0.6400 hc         1 4SP       0.039700
     37 H142         5.9020    -1.3770     0.0830 hc         1 4SP       0.039700
     38 H151         5.8430     0.0110    -2.6360 hc         1 4SP       0.040450
     39 H152         5.8960    -1.7180    -2.3630 hc         1 4SP       0.040450
     40 H161         3.6660    -1.6730    -1.3100 hc         1 4SP       0.043950
     41 H162         3.6000    -0.9580    -2.9090 hc         1 4SP       0.043950
     42 H19         -0.0580     0.3430     3.1370 ha         1 4SP       0.153500
     43 H21         -4.1730    -0.7280     3.7640 ha         1 4SP       0.153500
     44 H22         -4.5310    -0.7250     1.3580 ha         1 4SP       0.152000
     45 H261        -2.8810     1.0640     6.8390 hn         1 4SP       0.415800
     46 H262        -2.2530     1.9680     5.5910 hn         1 4SP       0.415800
     47 H9          -3.2180    -0.1940    -5.5040 hn         1 4SP       0.320700
     48 H2          -3.7900    -0.3750    -0.6960 hn         1 4SP       0.459800
     49 H18         -0.4180     0.3460     0.7310 ha         1 4SP       0.152000
     50 S23         -1.8230    -0.2260     5.3540 sy         1 4SP       1.275200
@<TRIPOS>BOND
     1     1    15 ar  
     2     1    22 ar  
     3     1    23 1   
     4     2    19 2   
     5     2    20 1   
     6     2    28 1   
     7     3     4 1   
     8     3    17 1   
     9     3    29 1   
    10     3    30 1   
    11     4     5 1   
    12     4     9 1   
    13     4    31 1   
    14     5     6 1   
    15     5    32 1   
    16     5    33 1   
    17     6     7 1   
    18     6    34 1   
    19     6    35 1   
    20     7     8 1   
    21     7    36 1   
    22     7    37 1   
    23     8     9 1   
    24     8    38 1   
    25     8    39 1   
    26     9    40 1   
    27     9    41 1   
    28    10    11 ar  
    29    10    25 ar  
    30    10    42 1   
    31    11    12 ar  
    32    11    50 1   
    33    12    13 ar  
    34    12    43 1   
    35    13    24 ar  
    36    13    44 1   
    37    14    45 1   
    38    14    46 1   
    39    14    50 1   
    40    15    16 ar  
    41    16    17 1   
    42    16    18 ar  
    43    18    19 1   
    44    18    21 ar  
    45    20    21 1   
    46    20    47 1   
    47    21    22 ar  
    48    23    24 1   
    49    23    48 1   
    50    24    25 ar  
    51    25    49 1   
    52    26    50 2   
    53    27    50 2   
@<TRIPOS>SUBSTRUCTURE
     1 4SP         1 TEMP              0 ****  ****    0 ROOT
