@<TRIPOS>MOLECULE
4SP
   50    53     1     0     0
SMALL
No Charge or Current Charge


@<TRIPOS>ATOM
      1 C2          -2.0880    -0.0600    -1.5090 ca         1 4SP       0.438900
      2 C8          -1.0820     0.2370    -5.8130 cc         1 4SP       0.392700
      3 C10          2.0360     0.2150    -1.0570 c3         1 4SP       0.168600
      4 C11          3.5730     0.3300    -1.2640 c6         1 4SP      -0.066700
      5 C12          4.3090     0.4680     0.0990 c6         1 4SP      -0.071400
      6 C13          5.8410     0.5930    -0.0900 c6         1 4SP      -0.072400
      7 C14          6.4060    -0.6010    -0.8960 c6         1 4SP      -0.075400
      8 C15          5.6830    -0.7450    -2.2580 c6         1 4SP      -0.072400
      9 C16          4.1500    -0.8700    -2.0710 c6         1 4SP      -0.071400
     10 C19         -1.4860     0.6340     2.9550 ca         1 4SP       0.026000
     11 C20         -2.3420    -0.1180     3.7840 ca         1 4SP      -0.321500
     12 C21         -3.3720    -0.8880     3.2110 ca         1 4SP       0.026000
     13 C22         -3.5370    -0.9060     1.8160 ca         1 4SP      -0.187000
     14 N26         -3.1680     1.0890     5.9970 n8         1 4SP      -1.003100
     15 N1          -0.7580     0.0210    -1.3240 nb         1 4SP      -0.345000
     16 C6           0.0060     0.1400    -2.4330 ca         1 4SP       0.462300
     17 O6           1.3800     0.2370    -2.3390 os         1 4SP      -0.426300
     18 C5          -0.6060     0.1630    -3.7080 ca         1 4SP      -0.088600
     19 N7          -0.0270     0.2750    -4.9790 nd         1 4SP      -0.509100
     20 N9          -2.2690     0.1060    -5.0990 na         1 4SP      -0.415300
     21 C4          -1.9710     0.0610    -3.7740 ca         1 4SP       0.151500
     22 N3          -2.7450    -0.0570    -2.6840 nb         1 4SP      -0.271000
     23 N2          -2.8940    -0.2160    -0.3950 nu         1 4SP      -0.926900
     24 C17         -2.6790    -0.1730     0.9840 ca         1 4SP       0.385000
     25 C18         -1.6620     0.6070     1.5620 ca         1 4SP      -0.187000
     26 O24         -0.8170     0.4480     5.9030 o          1 4SP      -0.548500
     27 O25         -2.6680    -1.3160     6.1600 o          1 4SP      -0.548500
     28 H8          -1.0520     0.2960    -6.8960 h5         1 4SP       0.069800
     29 H101         1.6960     1.0570    -0.4390 h1         1 4SP       0.052200
     30 H102         1.8140    -0.7170    -0.5200 h1         1 4SP       0.052200
     31 H11          3.7370     1.2530    -1.8390 hc         1 4SP       0.064700
     32 H121         3.9350     1.3480     0.6410 hc         1 4SP       0.043950
     33 H122         4.0880    -0.4030     0.7330 hc         1 4SP       0.043950
     34 H131         6.0740     1.5340    -0.6090 hc         1 4SP       0.040450
     35 H132         6.3350     0.6470     0.8900 hc         1 4SP       0.040450
     36 H141         7.4840    -0.4660    -1.0580 hc         1 4SP       0.039700
     37 H142         6.2900    -1.5270    -0.3160 hc         1 4SP       0.039700
     38 H151         5.9090     0.1250    -2.8900 hc         1 4SP       0.040450
     39 H152         6.0660    -1.6260    -2.7910 hc         1 4SP       0.040450
     40 H161         3.9190    -1.8120    -1.5540 hc         1 4SP       0.043950
     41 H162         3.6700    -0.9310    -3.0570 hc         1 4SP       0.043950
     42 H19         -0.6900     1.2440     3.3810 ha         1 4SP       0.135500
     43 H21         -4.0460    -1.4700     3.8390 ha         1 4SP       0.135500
     44 H22         -4.3340    -1.5040     1.3830 ha         1 4SP       0.134000
     45 H261        -2.5600     1.6780     6.5610 hn         1 4SP       0.471000
     46 H262        -3.2760     1.6080     5.1300 hn         1 4SP       0.471000
     47 H9          -3.1950     0.0550    -5.5030 hn         1 4SP       0.371000
     48 H2          -3.8370    -0.5050    -0.6480 hn         1 4SP       0.515000
     49 H18         -1.0120     1.2120     0.9410 ha         1 4SP       0.134000
     50 S23         -2.1290    -0.0950     5.5620 sy         1 4SP       1.133600
@<TRIPOS>BOND
     1     1    15 ar  
     2     1    22 ar  
     3     1    23 1   
     4     2    19 2   
     5     2    20 1   
     6     2    28 1   
     7     3     4 1   
     8     3    17 1   
     9     3    29 1   
    10     3    30 1   
    11     4     5 1   
    12     4     9 1   
    13     4    31 1   
    14     5     6 1   
    15     5    32 1   
    16     5    33 1   
    17     6     7 1   
    18     6    34 1   
    19     6    35 1   
    20     7     8 1   
    21     7    36 1   
    22     7    37 1   
    23     8     9 1   
    24     8    38 1   
    25     8    39 1   
    26     9    40 1   
    27     9    41 1   
    28    10    11 ar  
    29    10    25 ar  
    30    10    42 1   
    31    11    12 ar  
    32    11    50 1   
    33    12    13 ar  
    34    12    43 1   
    35    13    24 ar  
    36    13    44 1   
    37    14    45 1   
    38    14    46 1   
    39    14    50 1   
    40    15    16 ar  
    41    16    17 1   
    42    16    18 ar  
    43    18    19 1   
    44    18    21 ar  
    45    20    21 1   
    46    20    47 1   
    47    21    22 ar  
    48    23    24 1   
    49    23    48 1   
    50    24    25 ar  
    51    25    49 1   
    52    26    50 2   
    53    27    50 2   
@<TRIPOS>SUBSTRUCTURE
     1 4SP         1 TEMP              0 ****  ****    0 ROOT
