@<TRIPOS>MOLECULE
4SR
   41    43     1     0     0
SMALL
No Charge or Current Charge


@<TRIPOS>ATOM
      1 O15         -5.5680    -2.1950     0.4720 o          1 4SR      -0.552000
      2 C14         -4.8040    -1.2950     0.1650 c          1 4SR       0.560000
      3 C16         -3.3780    -1.0370     0.6250 c5         1 4SR      -0.167400
      4 C11         -2.6770    -0.7090    -0.7180 c5         1 4SR      -0.026400
      5 C12         -3.7740     0.1490    -1.4300 c5         1 4SR       0.103000
      6 N13         -4.9980    -0.4810    -0.9190 ns         1 4SR      -0.518900
      7 C10         -1.4180     0.1340    -0.4560 ca         1 4SR      -0.078300
      8 C17         -1.4590     1.3890     0.1900 ca         1 4SR      -0.105000
      9 C18         -0.2860     2.1360     0.3940 ca         1 4SR      -0.168000
     10 C1           0.9620     1.6350    -0.0360 ca         1 4SR       0.111100
     11 O19          2.1380     2.3450     0.1450 os         1 4SR      -0.320100
     12 C20          2.1730     3.6320     0.7840 c3         1 4SR       0.144900
     13 C2           1.0190     0.3660    -0.6570 ca         1 4SR       0.124100
     14 C9          -0.1700    -0.3610    -0.8810 ca         1 4SR      -0.166000
     15 O3           2.2420    -0.1210    -1.0920 os         1 4SR      -0.328100
     16 C4           2.5310    -1.4020    -0.4630 c5         1 4SR       0.166300
     17 C5           3.8790    -1.9130    -1.0670 c5         1 4SR      -0.093900
     18 C6           4.9250    -1.6170     0.0400 c5         1 4SR      -0.079900
     19 C7           4.1150    -1.9970     1.3010 c5         1 4SR      -0.079900
     20 C8           2.8290    -1.1690     1.0590 c5         1 4SR      -0.093900
     21 H161        -2.9660    -1.8860     1.1780 hc         1 4SR       0.078700
     22 H162        -3.3990    -0.1490     1.2650 hc         1 4SR       0.078700
     23 H11         -2.4720    -1.6250    -1.2850 hc         1 4SR       0.061700
     24 H121        -3.7390     1.2090    -1.1520 h1         1 4SR       0.047700
     25 H122        -3.6900     0.0840    -2.5230 h1         1 4SR       0.047700
     26 H13         -5.8630    -0.5790    -1.4400 hn         1 4SR       0.326500
     27 H17         -2.4040     1.8030     0.5360 ha         1 4SR       0.114000
     28 H18         -0.3680     3.1010     0.8860 ha         1 4SR       0.120000
     29 H201         1.5640     4.3590     0.2300 h1         1 4SR       0.039700
     30 H202         1.7970     3.5670     1.8130 h1         1 4SR       0.039700
     31 H203         3.2020     4.0100     0.8210 h1         1 4SR       0.039700
     32 H9          -0.1280    -1.3130    -1.4030 ha         1 4SR       0.119000
     33 H4           1.7280    -2.1280    -0.6410 h1         1 4SR       0.042700
     34 H51          3.8220    -2.9890    -1.2690 hc         1 4SR       0.056200
     35 H52          4.1330    -1.4280    -2.0170 hc         1 4SR       0.056200
     36 H61          5.8340    -2.2180    -0.0730 hc         1 4SR       0.046700
     37 H62          5.2240    -0.5620     0.0480 hc         1 4SR       0.046700
     38 H71          3.9090    -3.0730     1.3500 hc         1 4SR       0.046700
     39 H72          4.6260    -1.7140     2.2290 hc         1 4SR       0.046700
     40 H81          3.0070    -0.1110     1.2860 hc         1 4SR       0.056200
     41 H82          2.0000    -1.4990     1.6940 hc         1 4SR       0.056200
@<TRIPOS>BOND
     1     1     2 2   
     2     2     3 1   
     3     2     6 1   
     4     3     4 1   
     5     3    21 1   
     6     3    22 1   
     7     4     5 1   
     8     4     7 1   
     9     4    23 1   
    10     5     6 1   
    11     5    24 1   
    12     5    25 1   
    13     6    26 1   
    14     7     8 ar  
    15     7    14 ar  
    16     8     9 ar  
    17     8    27 1   
    18     9    10 ar  
    19     9    28 1   
    20    10    11 1   
    21    10    13 ar  
    22    11    12 1   
    23    12    29 1   
    24    12    30 1   
    25    12    31 1   
    26    13    14 ar  
    27    13    15 1   
    28    14    32 1   
    29    15    16 1   
    30    16    17 1   
    31    16    20 1   
    32    16    33 1   
    33    17    18 1   
    34    17    34 1   
    35    17    35 1   
    36    18    19 1   
    37    18    36 1   
    38    18    37 1   
    39    19    20 1   
    40    19    38 1   
    41    19    39 1   
    42    20    40 1   
    43    20    41 1   
@<TRIPOS>SUBSTRUCTURE
     1 4SR         1 TEMP              0 ****  ****    0 ROOT
