@<TRIPOS>MOLECULE
4SR
   41    43     1     0     0
SMALL
abcg2


@<TRIPOS>ATOM
      1 O15         -5.7590    -1.4630     0.9610 o          1 4SR      -0.552000
      2 C14         -4.7650    -1.0920     0.3590 c          1 4SR       0.560000
      3 C16         -3.4490    -0.6510     0.9670 c5         1 4SR      -0.167400
      4 C11         -2.4690    -0.6650    -0.2100 c5         1 4SR      -0.026400
      5 C12         -3.3880    -0.4140    -1.4180 c5         1 4SR       0.103000
      6 N13         -4.6440    -0.9780    -0.9760 ns         1 4SR      -0.518900
      7 C10         -1.3050     0.2820    -0.1140 ca         1 4SR      -0.078300
      8 C17         -1.4830     1.6430     0.0690 ca         1 4SR      -0.105000
      9 C18         -0.3860     2.4980     0.1490 ca         1 4SR      -0.168000
     10 C1           0.9050     2.0050     0.0460 ca         1 4SR       0.111100
     11 O19          2.0260     2.7500     0.1060 os         1 4SR      -0.320100
     12 C20          1.8860     4.1470     0.2620 c3         1 4SR       0.144900
     13 C2           1.1010     0.6220    -0.1420 ca         1 4SR       0.124100
     14 C9          -0.0030    -0.2140    -0.2180 ca         1 4SR      -0.166000
     15 O3           2.3840     0.2310    -0.2440 os         1 4SR      -0.328100
     16 C4           2.6890    -1.1390    -0.4810 c5         1 4SR       0.166300
     17 C5           4.1710    -1.2500    -0.8940 c5         1 4SR      -0.093900
     18 C6           4.8530    -2.0950     0.1860 c5         1 4SR      -0.079900
     19 C7           3.7240    -2.9790     0.7080 c5         1 4SR      -0.079900
     20 C8           2.5400    -2.0180     0.7730 c5         1 4SR      -0.093900
     21 H161        -3.1480    -1.2980     1.7900 hc         1 4SR       0.078700
     22 H162        -3.5840     0.3550     1.3780 hc         1 4SR       0.078700
     23 H11         -2.0790    -1.6820    -0.3040 hc         1 4SR       0.061700
     24 H121        -3.4860     0.6550    -1.6330 h1         1 4SR       0.047700
     25 H122        -3.0240    -0.9060    -2.3200 h1         1 4SR       0.047700
     26 H13         -5.4270    -1.1100    -1.5960 hn         1 4SR       0.326500
     27 H17         -2.4770     2.0640     0.1540 ha         1 4SR       0.114000
     28 H18         -0.5610     3.5550     0.2920 ha         1 4SR       0.120000
     29 H201         1.3240     4.5960    -0.5610 h1         1 4SR       0.039700
     30 H202         1.3960     4.4080     1.2040 h1         1 4SR       0.039700
     31 H203         2.8920     4.5600     0.2660 h1         1 4SR       0.039700
     32 H9           0.1270    -1.2790    -0.3590 ha         1 4SR       0.119000
     33 H4           2.0530    -1.5090    -1.2920 h1         1 4SR       0.042700
     34 H51          4.2370    -1.7540    -1.8590 hc         1 4SR       0.056200
     35 H52          4.6250    -0.2660    -1.0210 hc         1 4SR       0.056200
     36 H61          5.7020    -2.6610    -0.2000 hc         1 4SR       0.046700
     37 H62          5.2290    -1.4610     0.9930 hc         1 4SR       0.046700
     38 H71          3.5200    -3.7860    -0.0010 hc         1 4SR       0.046700
     39 H72          3.9420    -3.4400     1.6730 hc         1 4SR       0.046700
     40 H81          2.6300    -1.3860     1.6620 hc         1 4SR       0.056200
     41 H82          1.5780    -2.5280     0.8340 hc         1 4SR       0.056200
@<TRIPOS>BOND
     1     1     2 2   
     2     2     3 1   
     3     2     6 1   
     4     3     4 1   
     5     3    21 1   
     6     3    22 1   
     7     4     5 1   
     8     4     7 1   
     9     4    23 1   
    10     5     6 1   
    11     5    24 1   
    12     5    25 1   
    13     6    26 1   
    14     7     8 ar  
    15     7    14 ar  
    16     8     9 ar  
    17     8    27 1   
    18     9    10 ar  
    19     9    28 1   
    20    10    11 1   
    21    10    13 ar  
    22    11    12 1   
    23    12    29 1   
    24    12    30 1   
    25    12    31 1   
    26    13    14 ar  
    27    13    15 1   
    28    14    32 1   
    29    15    16 1   
    30    16    17 1   
    31    16    20 1   
    32    16    33 1   
    33    17    18 1   
    34    17    34 1   
    35    17    35 1   
    36    18    19 1   
    37    18    36 1   
    38    18    37 1   
    39    19    20 1   
    40    19    38 1   
    41    19    39 1   
    42    20    40 1   
    43    20    41 1   
@<TRIPOS>SUBSTRUCTURE
     1 4SR         1 TEMP              0 ****  ****    0 ROOT
