@<TRIPOS>MOLECULE
4SS
   66    70     1     0     0
SMALL
No Charge or Current Charge


@<TRIPOS>ATOM
      1 C2          -1.4250    -5.2080     0.5200 ca         1 4SS       0.122000
      2 C3          -0.6170    -4.4810     1.4070 ca         1 4SS      -0.102000
      3 C44         -2.7840     0.3830    -0.7440 ca         1 4SS      -0.086000
      4 C45         -2.7230     1.5170     0.1040 ca         1 4SS       0.144100
      5 C46         -3.8960     2.2590     0.3730 ca         1 4SS      -0.191000
      6 C48         -5.1090     1.9260    -0.2530 ca         1 4SS      -0.028300
      7 C49         -5.1380     0.8740    -1.1830 ca         1 4SS      -0.139000
      8 C51         -3.9770     0.1310    -1.4480 ca         1 4SS      -0.052000
      9 C53         -6.3660     2.7340     0.0320 c3         1 4SS      -0.052800
     10 C58         -1.3200     3.0700     1.4420 c3         1 4SS       0.137300
     11 C12         -0.7460    -0.9310    -0.0770 c6         1 4SS       0.228300
     12 C15         -1.0310    -0.1680    -2.4410 c          1 4SS       0.576000
     13 C16          0.2470    -0.9650    -2.7410 c6         1 4SS      -0.112100
     14 C19          1.2400    -0.6500    -1.6310 ca         1 4SS      -0.063300
     15 C20          0.7480    -0.6350    -0.3150 ca         1 4SS      -0.115300
     16 C21          1.6160    -0.3380     0.7510 ca         1 4SS      -0.189000
     17 C23          2.9830    -0.0720     0.5040 ca         1 4SS       0.121100
     18 C24          3.4750    -0.0950    -0.8240 ca         1 4SS       0.140100
     19 C25          2.5940    -0.3840    -1.8920 ca         1 4SS      -0.170000
     20 C28          5.4040     0.1770    -2.3500 c3         1 4SS       0.161600
     21 Cl1         -1.6860    -6.9280     0.7760 cl         1 4SS      -0.200000
     22 C5          -0.4090    -3.1060     1.2030 ca         1 4SS      -0.091500
     23 C7          -1.0010    -2.4420     0.1070 ca         1 4SS      -0.089300
     24 C8          -1.8200    -3.1860    -0.7770 ca         1 4SS      -0.091500
     25 C10         -2.0260    -4.5610    -0.5700 ca         1 4SS      -0.102000
     26 N14         -1.5860    -0.3140    -1.1460 n          1 4SS      -0.234400
     27 O27          4.8170     0.1730    -1.0380 os         1 4SS      -0.319100
     28 C31          6.8950     0.5140    -2.1890 c3         1 4SS      -0.093100
     29 O35          3.8640     0.2180     1.5330 os         1 4SS      -0.317100
     30 C36          3.4560     0.2560     2.9100 c3         1 4SS       0.161600
     31 C39          4.6810     0.6540     3.7470 c3         1 4SS      -0.093100
     32 O43         -1.4680     0.6450    -3.2480 o          1 4SS      -0.532000
     33 O57         -1.4960     1.8970     0.6180 os         1 4SS      -0.355100
     34 C61          0.1520     3.2830     1.7020 cc         1 4SS       0.384800
     35 N62          1.1680     3.0180     0.8300 na         1 4SS      -0.197700
     36 N63          2.3610     3.3770     1.3680 nc         1 4SS      -0.196800
     37 N65          2.0570     3.8440     2.5490 nd         1 4SS      -0.048000
     38 N66          0.7010     3.8030     2.7820 nd         1 4SS      -0.386000
     39 H1          -0.1540    -4.9830     2.2530 ha         1 4SS       0.130500
     40 H2          -3.8790     3.1090     1.0470 ha         1 4SS       0.120000
     41 H3          -6.0600     0.6360    -1.7090 ha         1 4SS       0.121000
     42 H4          -4.0140    -0.6690    -2.1850 ha         1 4SS       0.129000
     43 H5          -6.4160     3.6180    -0.6140 hc         1 4SS       0.047033
     44 H6          -7.2720     2.1410    -0.1400 hc         1 4SS       0.047033
     45 H7          -6.3910     3.0770     1.0730 hc         1 4SS       0.047033
     46 H8          -1.7090     3.9630     0.9370 h1         1 4SS       0.071200
     47 H9          -1.8440     2.9550     2.3990 h1         1 4SS       0.071200
     48 H10         -1.0200    -0.4690     0.8810 h1         1 4SS       0.068700
     49 H11          0.0180    -2.0340    -2.6540 hc         1 4SS       0.083200
     50 H12          0.6270    -0.7310    -3.7440 hc         1 4SS       0.083200
     51 H13          1.2150    -0.3170     1.7610 ha         1 4SS       0.121000
     52 H14          2.9440    -0.4070    -2.9200 ha         1 4SS       0.128000
     53 H15          5.3010    -0.8060    -2.8260 h1         1 4SS       0.035200
     54 H16          4.9260     0.9320    -2.9880 h1         1 4SS       0.035200
     55 H17          0.2170    -2.5580     1.9020 ha         1 4SS       0.117500
     56 H18         -2.3030    -2.7140    -1.6280 ha         1 4SS       0.117500
     57 H19         -2.6550    -5.1260    -1.2540 ha         1 4SS       0.130500
     58 H20          7.0200     1.4990    -1.7250 hc         1 4SS       0.050033
     59 H21          7.3940    -0.2360    -1.5640 hc         1 4SS       0.050033
     60 H22          7.3870     0.5290    -3.1680 hc         1 4SS       0.050033
     61 H23          2.6580     0.9940     3.0630 h1         1 4SS       0.029700
     62 H24          3.0930    -0.7280     3.2350 h1         1 4SS       0.029700
     63 H25          4.4170     0.6940     4.8100 hc         1 4SS       0.050367
     64 H26          5.4900    -0.0750     3.6200 hc         1 4SS       0.050367
     65 H27          5.0480     1.6420     3.4460 hc         1 4SS       0.050367
     66 H28          1.0820     2.6100    -0.0920 hn         1 4SS       0.405000
@<TRIPOS>BOND
     1     1     2 ar  
     2     1    21 1   
     3     1    25 ar  
     4     2    22 ar  
     5     2    39 1   
     6     3     4 ar  
     7     3     8 ar  
     8     3    26 1   
     9     4     5 ar  
    10     4    33 1   
    11     5     6 ar  
    12     5    40 1   
    13     6     7 ar  
    14     6     9 1   
    15     7     8 ar  
    16     7    41 1   
    17     8    42 1   
    18     9    43 1   
    19     9    44 1   
    20     9    45 1   
    21    10    33 1   
    22    10    34 1   
    23    10    46 1   
    24    10    47 1   
    25    11    15 1   
    26    11    23 1   
    27    11    26 1   
    28    11    48 1   
    29    12    13 1   
    30    12    26 1   
    31    12    32 2   
    32    13    14 1   
    33    13    49 1   
    34    13    50 1   
    35    14    15 ar  
    36    14    19 ar  
    37    15    16 ar  
    38    16    17 ar  
    39    16    51 1   
    40    17    18 ar  
    41    17    29 1   
    42    18    19 ar  
    43    18    27 1   
    44    19    52 1   
    45    20    27 1   
    46    20    28 1   
    47    20    53 1   
    48    20    54 1   
    49    22    23 ar  
    50    22    55 1   
    51    23    24 ar  
    52    24    25 ar  
    53    24    56 1   
    54    25    57 1   
    55    28    58 1   
    56    28    59 1   
    57    28    60 1   
    58    29    30 1   
    59    30    31 1   
    60    30    61 1   
    61    30    62 1   
    62    31    63 1   
    63    31    64 1   
    64    31    65 1   
    65    34    35 1   
    66    34    38 2   
    67    35    36 1   
    68    35    66 1   
    69    36    37 2   
    70    37    38 1   
@<TRIPOS>SUBSTRUCTURE
     1 4SS         1 TEMP              0 ****  ****    0 ROOT
