@<TRIPOS>MOLECULE
4SS
   66    70     1     0     0
SMALL
bcc


@<TRIPOS>ATOM
      1 C2          -1.4510    -5.1690     0.1290 ca         1 4SS       0.030400
      2 C3          -0.9710    -4.4900     1.2390 ca         1 4SS      -0.120000
      3 C44         -2.7180     0.4220    -0.6560 ca         1 4SS       0.006600
      4 C45         -2.6140     1.7360    -0.1890 ca         1 4SS       0.144100
      5 C46         -3.7410     2.4100     0.2560 ca         1 4SS      -0.209000
      6 C48         -4.9870     1.7810     0.2430 ca         1 4SS      -0.028300
      7 C49         -5.0810     0.4720    -0.2150 ca         1 4SS      -0.157000
      8 C51         -3.9510    -0.1990    -0.6660 ca         1 4SS      -0.070000
      9 C53         -6.2090     2.5270     0.6930 c3         1 4SS      -0.052800
     10 C58         -1.1360     3.5370     0.3090 c3         1 4SS       0.114100
     11 C12         -0.7590    -0.9270    -0.0570 c6         1 4SS       0.228300
     12 C15         -1.0670     0.0260    -2.3300 c          1 4SS       0.718500
     13 C16          0.2980    -0.5360    -2.6510 c6         1 4SS      -0.112100
     14 C19          1.2280    -0.4460    -1.4800 ca         1 4SS      -0.063300
     15 C20          0.7150    -0.6440    -0.2160 ca         1 4SS      -0.115300
     16 C21          1.5520    -0.5570     0.9010 ca         1 4SS      -0.207000
     17 C23          2.9030    -0.2910     0.7520 ca         1 4SS       0.121100
     18 C24          3.4270    -0.0770    -0.5430 ca         1 4SS       0.140100
     19 C25          2.5840    -0.1540    -1.6380 ca         1 4SS      -0.188000
     20 C28          5.3120     0.5470    -1.8500 c3         1 4SS       0.138400
     21 CL1         -1.7180    -6.8790     0.2230 cl         1 4SS      -0.108400
     22 C5          -0.7700    -3.1230     1.1550 ca         1 4SS      -0.109500
     23 C7          -1.0360    -2.4210    -0.0190 ca         1 4SS      -0.089300
     24 C8          -1.5290    -3.1240    -1.1110 ca         1 4SS      -0.109500
     25 C10         -1.7340    -4.4960    -1.0470 ca         1 4SS      -0.120000
     26 N14         -1.5340    -0.2330    -1.0790 n          1 4SS      -0.394000
     27 O27          4.7360     0.2060    -0.5950 os         1 4SS      -0.295900
     28 C31          6.7720     0.8590    -1.6240 c3         1 4SS      -0.093100
     29 O35          3.7830    -0.1880     1.7590 os         1 4SS      -0.293900
     30 C36          3.3140    -0.3550     3.0910 c3         1 4SS       0.138400
     31 C39          4.4880    -0.1950     4.0270 c3         1 4SS      -0.093100
     32 O43         -1.7160     0.6620    -3.1400 o          1 4SS      -0.607500
     33 O57         -1.3670     2.2500    -0.2090 os         1 4SS      -0.331900
     34 C61          0.3340     3.7440     0.2570 cc         1 4SS       0.384800
     35 N62          1.2510     2.7780     0.2880 na         1 4SS      -0.147400
     36 N63          2.4520     3.3280     0.2630 nc         1 4SS      -0.196800
     37 N65          2.2700     4.5880     0.2230 nd         1 4SS      -0.048000
     38 N66          0.9690     4.8870     0.2140 nd         1 4SS      -0.386000
     39 H1          -0.7650    -5.0150     2.1610 ha         1 4SS       0.148500
     40 H2          -3.6740     3.4290     0.6170 ha         1 4SS       0.138000
     41 H3          -6.0410    -0.0290    -0.2300 ha         1 4SS       0.139000
     42 H4          -4.0300    -1.2170    -1.0260 ha         1 4SS       0.147000
     43 H5          -6.7070     2.9980    -0.1560 hc         1 4SS       0.047033
     44 H6          -6.9310     1.8610     1.1630 hc         1 4SS       0.047033
     45 H7          -5.9610     3.3160     1.4020 hc         1 4SS       0.047033
     46 H8          -1.6350     4.3160    -0.2740 h1         1 4SS       0.071200
     47 H9          -1.4780     3.6220     1.3470 h1         1 4SS       0.071200
     48 H10         -1.0750    -0.5140     0.9040 h1         1 4SS       0.068700
     49 H11          0.1780    -1.5810    -2.9620 hc         1 4SS       0.083200
     50 H12          0.6890     0.0000    -3.5150 hc         1 4SS       0.083200
     51 H13          1.1280    -0.6940     1.8880 ha         1 4SS       0.139000
     52 H14          2.9590     0.0260    -2.6370 ha         1 4SS       0.146000
     53 H15          5.2020    -0.2830    -2.5550 h1         1 4SS       0.035200
     54 H16          4.7940     1.4130    -2.2740 h1         1 4SS       0.035200
     55 H17         -0.4090    -2.6000     2.0320 ha         1 4SS       0.135500
     56 H18         -1.7840    -2.6150    -2.0310 ha         1 4SS       0.135500
     57 H19         -2.1230    -5.0240    -1.9060 ha         1 4SS       0.148500
     58 H20          6.8990     1.6930    -0.9340 hc         1 4SS       0.050033
     59 H21          7.3080    -0.0050    -1.2300 hc         1 4SS       0.050033
     60 H22          7.2330     1.1340    -2.5720 hc         1 4SS       0.050033
     61 H23          2.5420     0.3890     3.3130 h1         1 4SS       0.029700
     62 H24          2.8630    -1.3460     3.2110 h1         1 4SS       0.029700
     63 H25          4.1450    -0.3140     5.0540 hc         1 4SS       0.050367
     64 H26          5.2530    -0.9480     3.8380 hc         1 4SS       0.050367
     65 H27          4.9400     0.7920     3.9370 hc         1 4SS       0.050367
     66 H28          1.1370     1.7700     0.3300 hn         1 4SS       0.354700
@<TRIPOS>BOND
     1     1     2 ar  
     2     1    21 1   
     3     1    25 ar  
     4     2    22 ar  
     5     2    39 1   
     6     3     4 ar  
     7     3     8 ar  
     8     3    26 1   
     9     4     5 ar  
    10     4    33 1   
    11     5     6 ar  
    12     5    40 1   
    13     6     7 ar  
    14     6     9 1   
    15     7     8 ar  
    16     7    41 1   
    17     8    42 1   
    18     9    43 1   
    19     9    44 1   
    20     9    45 1   
    21    10    33 1   
    22    10    34 1   
    23    10    46 1   
    24    10    47 1   
    25    11    15 1   
    26    11    23 1   
    27    11    26 1   
    28    11    48 1   
    29    12    13 1   
    30    12    26 1   
    31    12    32 2   
    32    13    14 1   
    33    13    49 1   
    34    13    50 1   
    35    14    15 ar  
    36    14    19 ar  
    37    15    16 ar  
    38    16    17 ar  
    39    16    51 1   
    40    17    18 ar  
    41    17    29 1   
    42    18    19 ar  
    43    18    27 1   
    44    19    52 1   
    45    20    27 1   
    46    20    28 1   
    47    20    53 1   
    48    20    54 1   
    49    22    23 ar  
    50    22    55 1   
    51    23    24 ar  
    52    24    25 ar  
    53    24    56 1   
    54    25    57 1   
    55    28    58 1   
    56    28    59 1   
    57    28    60 1   
    58    29    30 1   
    59    30    31 1   
    60    30    61 1   
    61    30    62 1   
    62    31    63 1   
    63    31    64 1   
    64    31    65 1   
    65    34    35 1   
    66    34    38 2   
    67    35    36 1   
    68    35    66 1   
    69    36    37 2   
    70    37    38 1   
@<TRIPOS>SUBSTRUCTURE
     1 4SS         1 TEMP              0 ****  ****    0 ROOT
