@<TRIPOS>MOLECULE
4ST
   65    72     1     0     0
SMALL
No Charge or Current Charge


@<TRIPOS>ATOM
      1 CAB          4.2660    -2.6480    -1.8510 c3         1 4ST       0.140900
      2 OAQ          3.5760    -1.7750    -0.9370 os         1 4ST      -0.440000
      3 CBF          2.4570    -2.3270    -0.1890 c6         1 4ST       0.134300
      4 CBD          1.2860    -2.7520    -1.1350 c6         1 4ST       0.160500
      5 NAO          0.8480    -1.6570    -2.0320 n7         1 4ST      -0.865400
      6 CAA         -0.0090    -2.0080    -3.1790 c3         1 4ST       0.152100
      7 CAN          0.1360    -3.3500    -0.2950 c6         1 4ST      -0.122400
      8 CBE         -0.3040    -2.4400     0.8730 c6         1 4ST       0.336300
      9 OAR          0.8190    -1.9440     1.6500 os         1 4ST      -0.453000
     10 CBI          1.9700    -1.3630     0.9640 c6         1 4ST       0.365000
     11 CAC          3.0170    -1.3660     2.1200 c3         1 4ST      -0.099100
     12 NBH          1.6740     0.0400     0.4910 na         1 4ST      -0.098600
     13 CAY          2.6510     1.0690     0.3540 ca         1 4ST       0.010800
     14 CAH          4.0550     1.0540     0.2570 ca         1 4ST      -0.122000
     15 CAF          4.7280     2.2860     0.1200 ca         1 4ST      -0.100000
     16 CAE          4.0060     3.5000     0.0650 ca         1 4ST      -0.140000
     17 CAG          2.5990     3.5000     0.1310 ca         1 4ST      -0.067000
     18 CAX          1.9300     2.2670     0.2720 cp         1 4ST      -0.072000
     19 CBA          0.5100     1.9470     0.3050 cp         1 4ST      -0.093000
     20 CBC          0.3710     0.5600     0.4280 ca         1 4ST       0.055800
     21 CBB         -0.8960    -0.0410     0.4130 ca         1 4ST      -0.042200
     22 NBG         -1.2520    -1.3700     0.4970 na         1 4ST      -0.087700
     23 CAV         -2.6520    -1.4960     0.3890 cc         1 4ST      -0.080300
     24 CAL         -3.4830    -2.7570     0.4350 c6         1 4ST      -0.013200
     25 CAJ         -4.9730    -2.4070     0.6710 c6         1 4ST      -0.070400
     26 CAI         -5.4220    -1.2370    -0.2380 c6         1 4ST      -0.076400
     27 CAK         -4.6260     0.0620     0.0610 c6         1 4ST      -0.004200
     28 CAT         -3.1420    -0.2020     0.2300 cd         1 4ST      -0.105400
     29 CAZ         -2.0330     0.7310     0.2620 ca         1 4ST      -0.016800
     30 CAW         -1.9260     2.1350     0.1600 ca         1 4ST      -0.145600
     31 CAU         -0.6710     2.7110     0.1810 ca         1 4ST      -0.049300
     32 CAM         -0.7320     4.2040     0.0210 c5         1 4ST       0.147300
     33 NAP         -2.1920     4.4290    -0.0750 ns         1 4ST      -0.525900
     34 CAS         -2.9070     3.2440     0.0060 c          1 4ST       0.587600
     35 OAD         -4.1240     3.1700    -0.0300 o          1 4ST      -0.564000
     36 HAB1         5.1380    -2.1370    -2.2770 h1         1 4ST       0.034367
     37 HAB2         4.6190    -3.5510    -1.3360 h1         1 4ST       0.034367
     38 HAB3         3.6150    -2.9510    -2.6810 h1         1 4ST       0.034367
     39 HBF          2.8180    -3.2430     0.3000 h1         1 4ST       0.045700
     40 HBD          1.6620    -3.5620    -1.7760 h1         1 4ST       0.024700
     41 HNO          1.6980    -1.2080    -2.3980 hn         1 4ST       0.436000
     42 HAA1         0.4840    -2.7530    -3.8170 h1         1 4ST       0.032033
     43 HAA2        -0.9710    -2.4190    -2.8460 h1         1 4ST       0.032033
     44 HAA3        -0.2180    -1.1190    -3.7880 h1         1 4ST       0.032033
     45 HAN1        -0.7250    -3.6060    -0.9240 hc         1 4ST       0.064200
     46 HAN2         0.4780    -4.3030     0.1300 hc         1 4ST       0.064200
     47 HBE         -0.9030    -3.0670     1.5490 h2         1 4ST       0.086700
     48 HAC1         2.9820    -2.3080     2.6800 hc         1 4ST       0.061033
     49 HAC2         4.0450    -1.2690     1.7630 hc         1 4ST       0.061033
     50 HAC3         2.8260    -0.5540     2.8320 hc         1 4ST       0.061033
     51 HAH          4.6310     0.1360     0.2670 ha         1 4ST       0.117000
     52 HAF          5.8130     2.3010     0.0480 ha         1 4ST       0.107000
     53 HAE          4.5410     4.4410    -0.0450 ha         1 4ST       0.111000
     54 HAG          2.0490     4.4340     0.0650 ha         1 4ST       0.110000
     55 HAL1        -3.1370    -3.4380     1.2240 hc         1 4ST       0.041200
     56 HAL2        -3.3820    -3.3030    -0.5130 hc         1 4ST       0.041200
     57 HAJ1        -5.1250    -2.1320     1.7240 hc         1 4ST       0.043200
     58 HAJ2        -5.5960    -3.2920     0.4860 hc         1 4ST       0.043200
     59 HAI1        -6.4970    -1.0500    -0.1110 hc         1 4ST       0.039700
     60 HAI2        -5.2790    -1.5200    -1.2910 hc         1 4ST       0.039700
     61 HAK1        -5.0210     0.5310     0.9730 hc         1 4ST       0.063700
     62 HAK2        -4.7990     0.7740    -0.7560 hc         1 4ST       0.063700
     63 HAM1        -0.2910     4.7140     0.8880 h1         1 4ST       0.055700
     64 HAM2        -0.2050     4.5270    -0.8860 h1         1 4ST       0.055700
     65 HAP         -2.6760     5.3140    -0.1740 hn         1 4ST       0.328500
@<TRIPOS>BOND
     1     1     2 1   
     2     1    36 1   
     3     1    37 1   
     4     1    38 1   
     5     2     3 1   
     6     3     4 1   
     7     3    10 1   
     8     3    39 1   
     9     4     5 1   
    10     4     7 1   
    11     4    40 1   
    12     5     6 1   
    13     5    41 1   
    14     6    42 1   
    15     6    43 1   
    16     6    44 1   
    17     7     8 1   
    18     7    45 1   
    19     7    46 1   
    20     8     9 1   
    21     8    22 1   
    22     8    47 1   
    23     9    10 1   
    24    10    11 1   
    25    10    12 1   
    26    11    48 1   
    27    11    49 1   
    28    11    50 1   
    29    12    13 1   
    30    12    20 1   
    31    13    14 ar  
    32    13    18 ar  
    33    14    15 ar  
    34    14    51 1   
    35    15    16 ar  
    36    15    52 1   
    37    16    17 ar  
    38    16    53 1   
    39    17    18 ar  
    40    17    54 1   
    41    18    19 1   
    42    19    20 ar  
    43    19    31 ar  
    44    20    21 ar  
    45    21    22 1   
    46    21    29 ar  
    47    22    23 1   
    48    23    24 1   
    49    23    28 2   
    50    24    25 1   
    51    24    55 1   
    52    24    56 1   
    53    25    26 1   
    54    25    57 1   
    55    25    58 1   
    56    26    27 1   
    57    26    59 1   
    58    26    60 1   
    59    27    28 1   
    60    27    61 1   
    61    27    62 1   
    62    28    29 1   
    63    29    30 ar  
    64    30    31 ar  
    65    30    34 1   
    66    31    32 1   
    67    32    33 1   
    68    32    63 1   
    69    32    64 1   
    70    33    34 1   
    71    33    65 1   
    72    34    35 2   
@<TRIPOS>SUBSTRUCTURE
     1 4ST         1 TEMP              0 ****  ****    0 ROOT
