@<TRIPOS>MOLECULE
4ST
   65    72     1     0     0
SMALL
bcc


@<TRIPOS>ATOM
      1 CAB          4.1890    -2.4600    -1.7510 c3         1 4ST       0.117700
      2 OAQ          3.4010    -1.6410    -0.9180 os         1 4ST      -0.393600
      3 CBF          2.3480    -2.3020    -0.2780 c6         1 4ST       0.111100
      4 CBD          1.1820    -2.6180    -1.2110 c6         1 4ST       0.160500
      5 NAO          0.7120    -1.4190    -1.8590 n7         1 4ST      -0.810200
      6 CAA         -0.3410    -1.6220    -2.8270 c3         1 4ST       0.152100
      7 CAN          0.1190    -3.2890    -0.3560 c6         1 4ST      -0.122400
      8 CBE         -0.2870    -2.4650     0.8530 c6         1 4ST       0.283800
      9 OAR          0.7960    -1.9440     1.5700 os         1 4ST      -0.406600
     10 CBI          1.9500    -1.4410     0.9420 c6         1 4ST       0.312500
     11 CAC          3.0140    -1.5380     2.0330 c3         1 4ST      -0.099100
     12 NBH          1.7000    -0.0330     0.5800 na         1 4ST      -0.069300
     13 CAY          2.6350     0.9870     0.4380 ca         1 4ST       0.010800
     14 CAH          4.0310     0.9790     0.4450 ca         1 4ST      -0.140000
     15 CAF          4.7020     2.1800     0.2920 ca         1 4ST      -0.118000
     16 CAE          4.0230     3.3880     0.1140 ca         1 4ST      -0.158000
     17 CAG          2.6420     3.4010     0.0730 ca         1 4ST      -0.085000
     18 CAX          1.9470     2.2030     0.2310 cp         1 4ST      -0.072000
     19 CBA          0.5500     1.8910     0.2120 cp         1 4ST      -0.093000
     20 CBC          0.4440     0.5090     0.4200 ca         1 4ST       0.055800
     21 CBB         -0.8280    -0.0770     0.4050 ca         1 4ST      -0.042200
     22 NBG         -1.1960    -1.3800     0.5510 na         1 4ST      -0.058400
     23 CAV         -2.5570    -1.4770     0.4310 cc         1 4ST      -0.080300
     24 CAL         -3.3220    -2.7480     0.5580 c6         1 4ST      -0.013200
     25 CAJ         -4.8090    -2.4310     0.7160 c6         1 4ST      -0.070400
     26 CAI         -5.2510    -1.3660    -0.2820 c6         1 4ST      -0.076400
     27 CAK         -4.5570    -0.0300    -0.0230 c6         1 4ST      -0.004200
     28 CAT         -3.0890    -0.2360     0.1900 cd         1 4ST      -0.105400
     29 CAZ         -1.9970     0.6860     0.1830 ca         1 4ST      -0.016800
     30 CAW         -1.8520     2.0820     0.0040 ca         1 4ST      -0.145600
     31 CAU         -0.6010     2.6580     0.0180 ca         1 4ST      -0.049300
     32 CAM         -0.7170     4.1340    -0.1970 c5         1 4ST       0.147300
     33 NAP         -2.1410     4.3020    -0.3120 ns         1 4ST      -0.592900
     34 CAS         -2.8490     3.1510    -0.2020 c          1 4ST       0.730100
     35 OAD         -4.0680     3.0670    -0.2620 o          1 4ST      -0.639500
     36 HAB1         5.0550    -1.8760    -2.0570 h1         1 4ST       0.034367
     37 HAB2         4.5390    -3.3540    -1.2240 h1         1 4ST       0.034367
     38 HAB3         3.6570    -2.7810    -2.6520 h1         1 4ST       0.034367
     39 HBF          2.6960    -3.2660     0.1300 h1         1 4ST       0.045700
     40 HBD          1.5240    -3.3760    -1.9390 h1         1 4ST       0.024700
     41 HNO          1.4920    -0.9490    -2.2960 hn         1 4ST       0.380800
     42 HAA1        -0.1700    -2.4710    -3.5050 h1         1 4ST       0.032033
     43 HAA2        -1.3020    -1.7800    -2.3350 h1         1 4ST       0.032033
     44 HAA3        -0.4400    -0.7260    -3.4380 h1         1 4ST       0.032033
     45 HAN1        -0.7700    -3.5420    -0.9360 hc         1 4ST       0.064200
     46 HAN2         0.5200    -4.2390     0.0050 hc         1 4ST       0.064200
     47 HBE         -0.8020    -3.1240     1.5550 h2         1 4ST       0.086700
     48 HAC1         3.0020    -2.5490     2.4380 hc         1 4ST       0.061033
     49 HAC2         4.0180    -1.3490     1.6700 hc         1 4ST       0.061033
     50 HAC3         2.8020    -0.8390     2.8410 hc         1 4ST       0.061033
     51 HAH          4.6070     0.0730     0.5330 ha         1 4ST       0.135000
     52 HAF          5.7850     2.1730     0.2970 ha         1 4ST       0.125000
     53 HAE          4.5800     4.3080    -0.0080 ha         1 4ST       0.129000
     54 HAG          2.1120     4.3320    -0.0860 ha         1 4ST       0.128000
     55 HAL1        -2.9710    -3.3350     1.4120 hc         1 4ST       0.041200
     56 HAL2        -3.1720    -3.3780    -0.3250 hc         1 4ST       0.041200
     57 HAJ1        -5.0000    -2.0760     1.7330 hc         1 4ST       0.043200
     58 HAJ2        -5.3910    -3.3450     0.5860 hc         1 4ST       0.043200
     59 HAI1        -6.3340    -1.2330    -0.2370 hc         1 4ST       0.039700
     60 HAI2        -5.0190    -1.7080    -1.2960 hc         1 4ST       0.039700
     61 HAK1        -5.0050     0.4540     0.8500 hc         1 4ST       0.063700
     62 HAK2        -4.7290     0.6510    -0.8570 hc         1 4ST       0.063700
     63 HAM1        -0.3070     4.7070     0.6410 h1         1 4ST       0.055700
     64 HAM2        -0.1950     4.4600    -1.1030 h1         1 4ST       0.055700
     65 HAP         -2.5760     5.1950    -0.4720 hn         1 4ST       0.328500
@<TRIPOS>BOND
     1     1     2 1   
     2     1    36 1   
     3     1    37 1   
     4     1    38 1   
     5     2     3 1   
     6     3     4 1   
     7     3    10 1   
     8     3    39 1   
     9     4     5 1   
    10     4     7 1   
    11     4    40 1   
    12     5     6 1   
    13     5    41 1   
    14     6    42 1   
    15     6    43 1   
    16     6    44 1   
    17     7     8 1   
    18     7    45 1   
    19     7    46 1   
    20     8     9 1   
    21     8    22 1   
    22     8    47 1   
    23     9    10 1   
    24    10    11 1   
    25    10    12 1   
    26    11    48 1   
    27    11    49 1   
    28    11    50 1   
    29    12    13 1   
    30    12    20 1   
    31    13    14 ar  
    32    13    18 ar  
    33    14    15 ar  
    34    14    51 1   
    35    15    16 ar  
    36    15    52 1   
    37    16    17 ar  
    38    16    53 1   
    39    17    18 ar  
    40    17    54 1   
    41    18    19 1   
    42    19    20 ar  
    43    19    31 ar  
    44    20    21 ar  
    45    21    22 1   
    46    21    29 ar  
    47    22    23 1   
    48    23    24 1   
    49    23    28 2   
    50    24    25 1   
    51    24    55 1   
    52    24    56 1   
    53    25    26 1   
    54    25    57 1   
    55    25    58 1   
    56    26    27 1   
    57    26    59 1   
    58    26    60 1   
    59    27    28 1   
    60    27    61 1   
    61    27    62 1   
    62    28    29 1   
    63    29    30 ar  
    64    30    31 ar  
    65    30    34 1   
    66    31    32 1   
    67    32    33 1   
    68    32    63 1   
    69    32    64 1   
    70    33    34 1   
    71    33    65 1   
    72    34    35 2   
@<TRIPOS>SUBSTRUCTURE
     1 4ST         1 TEMP              0 ****  ****    0 ROOT
