@<TRIPOS>MOLECULE
4SV
   15    15     1     0     0
SMALL
No Charge or Current Charge


@<TRIPOS>ATOM
      1 O2           2.3290    -0.7030     0.5000 o          1 4SV      -0.724000
      2 C6           1.7230     0.2300    -0.0100 c          1 4SV       0.723600
      3 O1           2.2860     1.2070    -0.4840 o          1 4SV      -0.724000
      4 C5           0.2120     0.2210    -0.0080 ca         1 4SV      -0.185600
      5 C1          -0.5510    -0.9650    -0.1120 ca         1 4SV       0.285000
      6 N1           0.0630    -2.1970    -0.2270 nv         1 4SV      -1.098000
      7 C4          -0.4990     1.4440     0.0900 ca         1 4SV      -0.095000
      8 C3          -1.9050     1.4480     0.0910 ca         1 4SV       0.228900
      9 N2          -2.6460     0.3220    -0.0020 nb         1 4SV      -0.671000
     10 C2          -1.9730    -0.8520    -0.1020 ca         1 4SV       0.211900
     11 H4           0.0320     2.3890     0.1720 ha         1 4SV       0.130000
     12 H11N         1.0560    -2.2210     0.0220 hn         1 4SV       0.472000
     13 H12N        -0.4730    -3.0440    -0.0390 hn         1 4SV       0.472000
     14 H2          -2.5970    -1.7420    -0.1790 h4         1 4SV      -0.015900
     15 H3          -2.4570     2.3840     0.1690 h4         1 4SV      -0.010900
@<TRIPOS>BOND
     1     1     2 1   
     2     2     3 1   
     3     2     4 1   
     4     4     5 ar  
     5     4     7 ar  
     6     5     6 1   
     7     5    10 ar  
     8     6    12 1   
     9     6    13 1   
    10     7     8 ar  
    11     7    11 1   
    12     8     9 ar  
    13     8    15 1   
    14     9    10 ar  
    15    10    14 1   
@<TRIPOS>SUBSTRUCTURE
     1 4SV         1 TEMP              0 ****  ****    0 ROOT
