@<TRIPOS>MOLECULE
4SV
   15    15     1     0     0
SMALL
bcc


@<TRIPOS>ATOM
      1 O2           2.3250    -0.8360     0.0990 o          1 4SV      -0.829300
      2 C6           1.7290     0.2620     0.0070 c          1 4SV       0.934200
      3 O1           2.2640     1.3820    -0.0430 o          1 4SV      -0.829300
      4 C5           0.2070     0.2270    -0.0280 ca         1 4SV      -0.185600
      5 C1          -0.5430    -0.9650    -0.0930 ca         1 4SV       0.081300
      6 N1           0.0220    -2.2010    -0.2270 nv         1 4SV      -0.849200
      7 C4          -0.5050     1.4210     0.0340 ca         1 4SV      -0.178300
      8 C3          -1.8870     1.4250     0.0490 ca         1 4SV       0.294200
      9 N2          -2.5980     0.2990     0.0050 nb         1 4SV      -0.671000
     10 C2          -1.9460    -0.8440    -0.0650 ca         1 4SV       0.277200
     11 H4           0.0370     2.3560     0.0810 ha         1 4SV       0.148000
     12 H11N         1.0100    -2.2250    -0.0110 hn         1 4SV       0.416800
     13 H12N        -0.5260    -2.9890     0.0760 hn         1 4SV       0.416800
     14 H2          -2.5480    -1.7480    -0.1030 h4         1 4SV      -0.015900
     15 H3          -2.4420     2.3550     0.1010 h4         1 4SV      -0.010900
@<TRIPOS>BOND
     1     1     2 1   
     2     2     3 1   
     3     2     4 1   
     4     4     5 ar  
     5     4     7 ar  
     6     5     6 1   
     7     5    10 ar  
     8     6    12 1   
     9     6    13 1   
    10     7     8 ar  
    11     7    11 1   
    12     8     9 ar  
    13     8    15 1   
    14     9    10 ar  
    15    10    14 1   
@<TRIPOS>SUBSTRUCTURE
     1 4SV         1 TEMP              0 ****  ****    0 ROOT
