@<TRIPOS>MOLECULE
4SX
   17    17     1     0     0
SMALL
No Charge or Current Charge


@<TRIPOS>ATOM
      1 O11         -2.2250    -1.4940    -0.5530 o          1 4SX      -0.693867
      2 S9          -2.1390    -0.1560     0.0540 s6         1 4SX       1.262100
      3 O12         -2.6780     0.9570    -0.7420 o          1 4SX      -0.693867
      4 O10         -2.4080    -0.0940     1.4990 o          1 4SX      -0.693867
      5 C4          -0.3140     0.1810     0.0140 ca         1 4SX      -0.224500
      6 C3           0.6190    -0.8820     0.0670 ca         1 4SX      -0.067000
      7 C5           0.1590     1.5100    -0.0480 ca         1 4SX      -0.021000
      8 C6           1.5400     1.7740    -0.0700 ca         1 4SX      -0.158000
      9 C1           2.4560     0.7140    -0.0250 ca         1 4SX       0.119100
     10 O7           3.7960     0.9600    -0.0440 oh         1 4SX      -0.555100
     11 C2           2.0010    -0.6170     0.0450 ca         1 4SX       0.002100
     12 O8           2.9080    -1.6470     0.0930 oh         1 4SX      -0.581100
     13 H1           0.2650    -1.9090     0.1260 ha         1 4SX       0.126000
     14 H2          -0.5430     2.3420    -0.0780 ha         1 4SX       0.134000
     15 H3           1.8960     2.8000    -0.1190 ha         1 4SX       0.108000
     16 H4           4.2230     0.0740    -0.0020 ho         1 4SX       0.469000
     17 H5           2.4240    -2.5020     0.1370 ho         1 4SX       0.466000
@<TRIPOS>BOND
     1     1     2 1   
     2     2     3 1   
     3     2     4 1   
     4     2     5 1   
     5     5     6 ar  
     6     5     7 ar  
     7     6    11 ar  
     8     6    13 1   
     9     7     8 ar  
    10     7    14 1   
    11     8     9 ar  
    12     8    15 1   
    13     9    10 1   
    14     9    11 ar  
    15    10    16 1   
    16    11    12 1   
    17    12    17 1   
@<TRIPOS>SUBSTRUCTURE
     1 4SX         1 TEMP              0 ****  ****    0 ROOT
