@<TRIPOS>MOLECULE
4SX
   17    17     1     0     0
SMALL
bcc


@<TRIPOS>ATOM
      1 O11         -2.2700    -1.3880    -0.6750 o          1 4SX      -0.693867
      2 S9          -2.0600    -0.1350     0.0730 s6         1 4SX       1.262100
      3 O12         -2.7190     1.0300    -0.5420 o          1 4SX      -0.693867
      4 O10         -2.3460    -0.2710     1.5130 o          1 4SX      -0.693867
      5 C4          -0.3060     0.1930    -0.0210 ca         1 4SX      -0.224500
      6 C3           0.5890    -0.8700     0.0660 ca         1 4SX      -0.085000
      7 C5           0.1650     1.4920    -0.1070 ca         1 4SX      -0.039000
      8 C6           1.5340     1.7300    -0.1070 ca         1 4SX      -0.176000
      9 C1           2.4350     0.6820    -0.0180 ca         1 4SX       0.119100
     10 O7           3.7560     0.9500    -0.0220 oh         1 4SX      -0.516100
     11 C2           1.9510    -0.6330     0.0660 ca         1 4SX       0.002100
     12 O8           2.8880    -1.6050     0.1380 oh         1 4SX      -0.542100
     13 H1           0.2260    -1.8910     0.1200 ha         1 4SX       0.144000
     14 H2          -0.5200     2.3240    -0.1830 ha         1 4SX       0.152000
     15 H3           1.9110     2.7430    -0.1800 ha         1 4SX       0.126000
     16 H4           4.2700     0.1370     0.0540 ho         1 4SX       0.430000
     17 H5           2.4780    -2.4760     0.1780 ho         1 4SX       0.427000
@<TRIPOS>BOND
     1     1     2 1   
     2     2     3 1   
     3     2     4 1   
     4     2     5 1   
     5     5     6 ar  
     6     5     7 ar  
     7     6    11 ar  
     8     6    13 1   
     9     7     8 ar  
    10     7    14 1   
    11     8     9 ar  
    12     8    15 1   
    13     9    10 1   
    14     9    11 ar  
    15    10    16 1   
    16    11    12 1   
    17    12    17 1   
@<TRIPOS>SUBSTRUCTURE
     1 4SX         1 TEMP              0 ****  ****    0 ROOT
