@<TRIPOS>MOLECULE
4SY
   47    48     1     0     0
SMALL
No Charge or Current Charge


@<TRIPOS>ATOM
      1 CAV          0.2590     0.6290     0.3170 ca         1 4SY      -0.126300
      2 CAK          1.0030     0.5070     1.5050 ca         1 4SY      -0.084000
      3 CAI          2.3470     0.0970     1.4640 ca         1 4SY      -0.114000
      4 CAJ          0.8780     0.3280    -0.9110 ca         1 4SY      -0.084000
      5 CAH          2.2220    -0.0820    -0.9500 ca         1 4SY      -0.114000
      6 CAT          2.9750    -0.2020     0.2380 ca         1 4SY       0.037000
      7 CAU          4.3810    -0.6290     0.2250 cc         1 4SY      -0.167000
      8 CAM          5.0630    -0.9380    -0.9170 cd         1 4SY      -0.150000
      9 CAL          5.2840    -0.8070     1.2870 cc         1 4SY       0.256900
     10 NAN          6.4820    -1.2040     0.9060 nd         1 4SY      -0.523800
     11 NAX          6.3450    -1.2860    -0.4740 na         1 4SY       0.136800
     12 CAA          7.4740    -1.7030    -1.3180 c3         1 4SY       0.071900
     13 CAD         -6.2250    -0.7300    -0.5030 c3         1 4SY      -0.109433
     14 CAY         -5.2390    -1.7680     0.0950 c3         1 4SY       0.225000
     15 CAB         -5.4630    -2.0160     1.6090 c3         1 4SY      -0.109433
     16 CAC         -5.3450    -3.1010    -0.6790 c3         1 4SY      -0.109433
     17 OAQ         -3.8780    -1.3310    -0.1310 os         1 4SY      -0.473100
     18 OAE         -3.9660     0.6350     1.1000 o          1 4SY      -0.550000
     19 N           -2.0820    -0.0490     0.0000 ns         1 4SY      -0.496900
     20 CA          -1.2010     1.0740     0.3650 c3         1 4SY       0.112000
     21 C           -1.4540     2.3310    -0.5300 c          1 4SY       0.606100
     22 O           -2.1770     2.3240    -1.5230 o          1 4SY      -0.556100
     23 NAO         -0.7590     3.4730    -0.1350 ns         1 4SY      -0.376400
     24 OAG         -1.0720     4.7720    -0.6960 oh         1 4SY      -0.423100
     25 H1           0.5420     0.7290     2.4660 ha         1 4SY       0.121500
     26 H2           2.8960     0.0130     2.3980 ha         1 4SY       0.114500
     27 H3           0.3200     0.4110    -1.8420 ha         1 4SY       0.121500
     28 H4           2.6670    -0.3040    -1.9150 ha         1 4SY       0.114500
     29 H5           4.7790    -0.9450    -1.9620 h4         1 4SY       0.155000
     30 H6           5.1010    -0.6570     2.3420 h4         1 4SY       0.039100
     31 H7           8.3070    -1.0020    -1.1870 h1         1 4SY       0.058367
     32 H8           7.7950    -2.7100    -1.0270 h1         1 4SY       0.058367
     33 H9           7.1680    -1.7100    -2.3700 h1         1 4SY       0.058367
     34 H10         -7.2380    -1.1460    -0.5430 hc         1 4SY       0.050144
     35 H11         -6.2740     0.1830     0.0990 hc         1 4SY       0.050144
     36 H12         -5.9310    -0.4570    -1.5230 hc         1 4SY       0.050144
     37 H13         -6.4030    -2.5560     1.7710 hc         1 4SY       0.050144
     38 H14         -4.6490    -2.6200     2.0280 hc         1 4SY       0.050144
     39 H15         -5.5260    -1.0800     2.1730 hc         1 4SY       0.050144
     40 H16         -5.1450    -2.9490    -1.7470 hc         1 4SY       0.050144
     41 H17         -4.6220    -3.8320    -0.2970 hc         1 4SY       0.050144
     42 H18         -6.3480    -3.5310    -0.5790 hc         1 4SY       0.050144
     43 H19         -1.7240    -0.7920    -0.5840 hn         1 4SY       0.339500
     44 H20         -1.4420     1.3740     1.3930 h1         1 4SY       0.058700
     45 H21         -0.2660     3.4740     0.7570 hn         1 4SY       0.334500
     46 H22         -0.1920     5.1260    -0.9660 ho         1 4SY       0.443000
     47 CAR         -3.3810    -0.1700     0.3940 c          1 4SY       0.654100
@<TRIPOS>BOND
     1     1     2 ar  
     2     1     4 ar  
     3     1    20 1   
     4     2     3 ar  
     5     2    25 1   
     6     3     6 ar  
     7     3    26 1   
     8     4     5 ar  
     9     4    27 1   
    10     5     6 ar  
    11     5    28 1   
    12     6     7 1   
    13     7     8 2   
    14     7     9 1   
    15     8    11 1   
    16     8    29 1   
    17     9    10 2   
    18     9    30 1   
    19    10    11 1   
    20    11    12 1   
    21    12    31 1   
    22    12    32 1   
    23    12    33 1   
    24    13    14 1   
    25    13    34 1   
    26    13    35 1   
    27    13    36 1   
    28    14    15 1   
    29    14    16 1   
    30    14    17 1   
    31    15    37 1   
    32    15    38 1   
    33    15    39 1   
    34    16    40 1   
    35    16    41 1   
    36    16    42 1   
    37    17    47 1   
    38    18    47 2   
    39    19    20 1   
    40    19    43 1   
    41    19    47 1   
    42    20    21 1   
    43    20    44 1   
    44    21    22 2   
    45    21    23 1   
    46    23    24 1   
    47    23    45 1   
    48    24    46 1   
@<TRIPOS>SUBSTRUCTURE
     1 4SY         1 TEMP              0 ****  ****    0 ROOT
