@<TRIPOS>MOLECULE
4SY
   47    48     1     0     0
SMALL
bcc


@<TRIPOS>ATOM
      1 CAV          0.3610     0.3790     0.5480 ca         1 4SY      -0.126300
      2 CAK          1.2680     0.5870     1.5800 ca         1 4SY      -0.102000
      3 CAI          2.6170     0.3240     1.4040 ca         1 4SY      -0.132000
      4 CAJ          0.8370    -0.0950    -0.6730 ca         1 4SY      -0.102000
      5 CAH          2.1840    -0.3570    -0.8490 ca         1 4SY      -0.132000
      6 CAT          3.1020    -0.1530     0.1850 ca         1 4SY       0.037000
      7 CAU          4.5240    -0.4280     0.0020 cc         1 4SY      -0.232300
      8 CAM          5.1310    -1.1650    -0.9990 cd         1 4SY      -0.117300
      9 CAL          5.6070    -0.0100     0.8010 cc         1 4SY       0.322200
     10 NAN          6.7580    -0.4480     0.3290 nd         1 4SY      -0.523800
     11 NAX          6.4500    -1.1480    -0.7580 na         1 4SY       0.115400
     12 CAA          7.4920    -1.7650    -1.5430 c3         1 4SY       0.042600
     13 CAD         -5.8940    -0.6360    -1.0970 c3         1 4SY      -0.109433
     14 CAY         -5.2930    -1.5810    -0.0630 c3         1 4SY       0.201800
     15 CAB         -5.9360    -1.4020     1.3070 c3         1 4SY      -0.109433
     16 CAC         -5.4580    -3.0250    -0.5220 c3         1 4SY      -0.109433
     17 OAQ         -3.8500    -1.4210     0.0070 os         1 4SY      -0.449900
     18 OAE         -3.8390     0.7280     0.7400 o          1 4SY      -0.599000
     19 N           -1.9280    -0.3900     0.3240 ns         1 4SY      -0.563900
     20 CA          -1.0990     0.7050     0.7460 c3         1 4SY       0.112000
     21 C           -1.4190     1.9590    -0.0800 c          1 4SY       0.673100
     22 O           -1.6340     1.9210    -1.2730 o          1 4SY      -0.556100
     23 NAO         -1.3190     3.0860     0.6430 ns         1 4SY      -0.443400
     24 OAG         -1.6280     4.2840     0.0730 oh         1 4SY      -0.384100
     25 H1           0.9190     0.9500     2.5390 ha         1 4SY       0.139500
     26 H2           3.2940     0.4830     2.2330 ha         1 4SY       0.132500
     27 H3           0.1580    -0.2480    -1.5020 ha         1 4SY       0.139500
     28 H4           2.5260    -0.7110    -1.8140 ha         1 4SY       0.132500
     29 H5           4.7200    -1.6970    -1.8430 h4         1 4SY       0.173000
     30 H6           5.5850     0.6000     1.6930 h4         1 4SY       0.039100
     31 H7           8.1020    -1.0080    -2.0330 h1         1 4SY       0.058367
     32 H8           8.1250    -2.3770    -0.9050 h1         1 4SY       0.058367
     33 H9           7.0370    -2.3960    -2.3000 h1         1 4SY       0.058367
     34 H10         -6.9430    -0.8930    -1.2460 hc         1 4SY       0.050144
     35 H11         -5.8470     0.4050    -0.7850 hc         1 4SY       0.050144
     36 H12         -5.3890    -0.7350    -2.0590 hc         1 4SY       0.050144
     37 H13         -6.9850    -1.6920     1.2450 hc         1 4SY       0.050144
     38 H14         -5.4590    -2.0410     2.0520 hc         1 4SY       0.050144
     39 H15         -5.8940    -0.3720     1.6560 hc         1 4SY       0.050144
     40 H16         -4.9910    -3.1930    -1.4930 hc         1 4SY       0.050144
     41 H17         -5.0230    -3.7220     0.1960 hc         1 4SY       0.050144
     42 H18         -6.5180    -3.2610    -0.6150 hc         1 4SY       0.050144
     43 H19         -1.4990    -1.2720     0.0960 hn         1 4SY       0.339500
     44 H20         -1.2600     0.9180     1.8090 h1         1 4SY       0.058700
     45 H21         -1.3510     3.0820     1.6530 hn         1 4SY       0.334500
     46 H22         -0.7850     4.6890    -0.1690 ho         1 4SY       0.404000
     47 CAR         -3.2730    -0.2860     0.3840 c          1 4SY       0.770100
@<TRIPOS>BOND
     1     1     2 ar  
     2     1     4 ar  
     3     1    20 1   
     4     2     3 ar  
     5     2    25 1   
     6     3     6 ar  
     7     3    26 1   
     8     4     5 ar  
     9     4    27 1   
    10     5     6 ar  
    11     5    28 1   
    12     6     7 1   
    13     7     8 2   
    14     7     9 1   
    15     8    11 1   
    16     8    29 1   
    17     9    10 2   
    18     9    30 1   
    19    10    11 1   
    20    11    12 1   
    21    12    31 1   
    22    12    32 1   
    23    12    33 1   
    24    13    14 1   
    25    13    34 1   
    26    13    35 1   
    27    13    36 1   
    28    14    15 1   
    29    14    16 1   
    30    14    17 1   
    31    15    37 1   
    32    15    38 1   
    33    15    39 1   
    34    16    40 1   
    35    16    41 1   
    36    16    42 1   
    37    17    47 1   
    38    18    47 2   
    39    19    20 1   
    40    19    43 1   
    41    19    47 1   
    42    20    21 1   
    43    20    44 1   
    44    21    22 2   
    45    21    23 1   
    46    23    24 1   
    47    23    45 1   
    48    24    46 1   
@<TRIPOS>SUBSTRUCTURE
     1 4SY         1 TEMP              0 ****  ****    0 ROOT
