@<TRIPOS>MOLECULE
4SZ
   47    48     1     0     0
SMALL
bcc


@<TRIPOS>ATOM
      1 CAA          6.8570    -0.7790     0.9900 c3         1 4SZ      -0.109433
      2 CBB          6.2000    -1.6970    -0.0340 c3         1 4SZ       0.202800
      3 CAB          6.8130    -1.5290    -1.4190 c3         1 4SZ      -0.109433
      4 CAC          6.3270    -3.1480     0.4120 c3         1 4SZ      -0.109433
      5 OAR          4.7610    -1.4880    -0.0700 os         1 4SZ      -0.448900
      6 CAS          4.2150    -0.3310    -0.4210 c          1 4SZ       0.771100
      7 OAD          4.8070     0.6720    -0.7660 o          1 4SZ      -0.598000
      8 N            2.8680    -0.3940    -0.3460 ns         1 4SZ      -0.564900
      9 CA           2.0710     0.7320    -0.7470 c3         1 4SZ       0.108000
     10 C            2.4390     1.9660     0.0890 c          1 4SZ       0.673100
     11 O            2.6580     1.9080     1.2800 o          1 4SZ      -0.552100
     12 NAP          2.3780     3.1030    -0.6240 ns         1 4SZ      -0.444400
     13 OAF          2.7300     4.2840    -0.0460 oh         1 4SZ      -0.381100
     14 CAY          0.6040     0.4540    -0.5320 ca         1 4SZ      -0.105300
     15 CAM          0.1360    -0.0380     0.6840 ca         1 4SZ      -0.108000
     16 CAK         -1.2180    -0.2580     0.8770 ca         1 4SZ      -0.113500
     17 CAL         -0.3110     0.7280    -1.5410 ca         1 4SZ      -0.108000
     18 CAJ         -1.6660     0.5170    -1.3450 ca         1 4SZ      -0.113500
     19 CAW         -2.1400     0.0190    -0.1330 cp         1 4SZ      -0.034000
     20 CAX         -3.5830    -0.2050     0.0790 cp         1 4SZ       0.006000
     21 CAN         -4.0270    -1.3090     0.8070 ca         1 4SZ      -0.157000
     22 CAU         -5.3780    -1.5020     0.9980 ca         1 4SZ       0.126900
     23 FAG         -5.8170    -2.5580     1.6830 f          1 4SZ      -0.118400
     24 CAZ         -6.3110    -0.6210     0.4800 ca         1 4SZ       0.054900
     25 FAI         -7.6130    -0.8190     0.6720 f          1 4SZ      -0.105900
     26 CAV         -5.8610     0.4700    -0.2400 ca         1 4SZ       0.126900
     27 FAH         -6.7630     1.3240    -0.7240 f          1 4SZ      -0.118400
     28 CAO         -4.5160     0.6880    -0.4450 ca         1 4SZ      -0.157000
     29 H1           6.3680    -0.8610     1.9620 hc         1 4SZ       0.050700
     30 H2           7.8980    -1.0780     1.1180 hc         1 4SZ       0.050700
     31 H3           6.8450     0.2640     0.6810 hc         1 4SZ       0.050700
     32 H4           7.8560    -1.8460    -1.3840 hc         1 4SZ       0.050700
     33 H5           6.3020    -2.1540    -2.1540 hc         1 4SZ       0.050700
     34 H6           6.7890    -0.4970    -1.7630 hc         1 4SZ       0.050700
     35 H7           5.8850    -3.3040     1.3980 hc         1 4SZ       0.050700
     36 H8           5.8440    -3.8260    -0.2930 hc         1 4SZ       0.050700
     37 H9           7.3800    -3.4230     0.4710 hc         1 4SZ       0.050700
     38 H10          2.4140    -1.2690    -0.1390 hn         1 4SZ       0.339500
     39 H11          2.2270     0.9510    -1.8100 h1         1 4SZ       0.060700
     40 H12          2.4000     3.1070    -1.6340 hn         1 4SZ       0.334500
     41 H13          1.9030     4.7150     0.2050 ho         1 4SZ       0.404000
     42 H14          0.8240    -0.2380     1.4950 ha         1 4SZ       0.146000
     43 H15         -1.5590    -0.6230     1.8370 ha         1 4SZ       0.140000
     44 H16          0.0360     1.1030    -2.4970 ha         1 4SZ       0.146000
     45 H17         -2.3530     0.7200    -2.1570 ha         1 4SZ       0.140000
     46 H18         -3.3310    -2.0340     1.2110 ha         1 4SZ       0.160500
     47 H19         -4.2040     1.5690    -0.9910 ha         1 4SZ       0.160500
@<TRIPOS>BOND
     1     1     2 1   
     2     1    29 1   
     3     1    30 1   
     4     1    31 1   
     5     2     3 1   
     6     2     4 1   
     7     2     5 1   
     8     3    32 1   
     9     3    33 1   
    10     3    34 1   
    11     4    35 1   
    12     4    36 1   
    13     4    37 1   
    14     5     6 1   
    15     6     7 2   
    16     6     8 1   
    17     8     9 1   
    18     8    38 1   
    19     9    10 1   
    20     9    14 1   
    21     9    39 1   
    22    10    11 2   
    23    10    12 1   
    24    12    13 1   
    25    12    40 1   
    26    13    41 1   
    27    14    15 ar  
    28    14    17 ar  
    29    15    16 ar  
    30    15    42 1   
    31    16    19 ar  
    32    16    43 1   
    33    17    18 ar  
    34    17    44 1   
    35    18    19 ar  
    36    18    45 1   
    37    19    20 1   
    38    20    21 ar  
    39    20    28 ar  
    40    21    22 ar  
    41    21    46 1   
    42    22    23 1   
    43    22    24 ar  
    44    24    25 1   
    45    24    26 ar  
    46    26    27 1   
    47    26    28 ar  
    48    28    47 1   
@<TRIPOS>SUBSTRUCTURE
     1 4SZ         1 TEMP              0 ****  ****    0 ROOT
