@<TRIPOS>MOLECULE
4SZ
   47    48     1     0     0
SMALL
No Charge or Current Charge


@<TRIPOS>ATOM
      1 CAA          7.1620    -0.9260     0.3970 c3         1 4SZ      -0.109433
      2 CBB          6.1120    -1.9110    -0.1780 c3         1 4SZ       0.226000
      3 CAB          6.2910    -2.1710    -1.6960 c3         1 4SZ      -0.109433
      4 CAC          6.1650    -3.2480     0.5940 c3         1 4SZ      -0.109433
      5 OAR          4.7800    -1.4060     0.0750 os         1 4SZ      -0.472100
      6 CAS          4.3320    -0.2210    -0.4400 c          1 4SZ       0.655100
      7 OAD          4.9420     0.5530    -1.1590 o          1 4SZ      -0.549000
      8 N            3.0500    -0.0330    -0.0190 ns         1 4SZ      -0.497900
      9 CA           2.2210     1.1350    -0.3660 c3         1 4SZ       0.108000
     10 C            2.5570     2.3760     0.5210 c          1 4SZ       0.606100
     11 O            3.2950     2.3310     1.5020 o          1 4SZ      -0.552100
     12 NAP          1.9190     3.5550     0.1370 ns         1 4SZ      -0.377400
     13 OAF          2.3120     4.8340     0.6920 oh         1 4SZ      -0.420100
     14 CAY          0.7400     0.7690    -0.2860 ca         1 4SZ      -0.105300
     15 CAM          0.1340     0.4990     0.9560 ca         1 4SZ      -0.090000
     16 CAK         -1.2290     0.1600     1.0240 ca         1 4SZ      -0.095500
     17 CAL         -0.0360     0.6900    -1.4580 ca         1 4SZ      -0.090000
     18 CAJ         -1.3980     0.3520    -1.3880 ca         1 4SZ      -0.095500
     19 CAW         -2.0250     0.0810    -0.1460 cp         1 4SZ      -0.034000
     20 CAX         -3.4760    -0.2800    -0.0730 cp         1 4SZ       0.006000
     21 CAN         -3.9530    -1.2120     0.8840 ca         1 4SZ      -0.139000
     22 CAU         -5.3150    -1.5500     0.9510 ca         1 4SZ       0.162000
     23 FAG         -5.7330    -2.4470     1.8740 f          1 4SZ      -0.153500
     24 CAZ         -6.2350    -0.9640     0.0660 ca         1 4SZ       0.090000
     25 FAI         -7.5490    -1.2910     0.1320 f          1 4SZ      -0.141000
     26 CAV         -5.7830    -0.0380    -0.8890 ca         1 4SZ       0.162000
     27 FAH         -6.6560     0.5380    -1.7460 f          1 4SZ      -0.153500
     28 CAO         -4.4210     0.3000    -0.9580 ca         1 4SZ      -0.139000
     29 H1           6.9040    -0.6380     1.4240 hc         1 4SZ       0.050700
     30 H2           8.1530    -1.3930     0.4160 hc         1 4SZ       0.050700
     31 H3           7.2440    -0.0160    -0.2070 hc         1 4SZ       0.050700
     32 H4           7.1980    -2.7590    -1.8780 hc         1 4SZ       0.050700
     33 H5           5.4390    -2.7320    -2.0980 hc         1 4SZ       0.050700
     34 H6           6.3900    -1.2390    -2.2630 hc         1 4SZ       0.050700
     35 H7           5.9960    -3.0860     1.6660 hc         1 4SZ       0.050700
     36 H8           5.3980    -3.9410     0.2280 hc         1 4SZ       0.050700
     37 H9           7.1430    -3.7290     0.4740 hc         1 4SZ       0.050700
     38 H10          2.6670    -0.7560     0.5740 hn         1 4SZ       0.339500
     39 H11          2.4550     1.4220    -1.4000 h1         1 4SZ       0.060700
     40 H12          1.4110     3.5830    -0.7470 hn         1 4SZ       0.334500
     41 H13          1.4570     5.2370     0.9760 ho         1 4SZ       0.443000
     42 H14          0.7150     0.5530     1.8740 ha         1 4SZ       0.128000
     43 H15         -1.6740    -0.0280     1.9980 ha         1 4SZ       0.122000
     44 H16          0.4160     0.8850    -2.4290 ha         1 4SZ       0.128000
     45 H17         -1.9690     0.2860    -2.3110 ha         1 4SZ       0.122000
     46 H18         -3.2610    -1.6900     1.5720 ha         1 4SZ       0.142500
     47 H19         -4.1010     1.0300    -1.6970 ha         1 4SZ       0.142500
@<TRIPOS>BOND
     1     1     2 1   
     2     1    29 1   
     3     1    30 1   
     4     1    31 1   
     5     2     3 1   
     6     2     4 1   
     7     2     5 1   
     8     3    32 1   
     9     3    33 1   
    10     3    34 1   
    11     4    35 1   
    12     4    36 1   
    13     4    37 1   
    14     5     6 1   
    15     6     7 2   
    16     6     8 1   
    17     8     9 1   
    18     8    38 1   
    19     9    10 1   
    20     9    14 1   
    21     9    39 1   
    22    10    11 2   
    23    10    12 1   
    24    12    13 1   
    25    12    40 1   
    26    13    41 1   
    27    14    15 ar  
    28    14    17 ar  
    29    15    16 ar  
    30    15    42 1   
    31    16    19 ar  
    32    16    43 1   
    33    17    18 ar  
    34    17    44 1   
    35    18    19 ar  
    36    18    45 1   
    37    19    20 1   
    38    20    21 ar  
    39    20    28 ar  
    40    21    22 ar  
    41    21    46 1   
    42    22    23 1   
    43    22    24 ar  
    44    24    25 1   
    45    24    26 ar  
    46    26    27 1   
    47    26    28 ar  
    48    28    47 1   
@<TRIPOS>SUBSTRUCTURE
     1 4SZ         1 TEMP              0 ****  ****    0 ROOT
