@<TRIPOS>MOLECULE
4T0
   77    81     1     0     0
SMALL
abcg2


@<TRIPOS>ATOM
      1 C13          8.4610    35.5740    26.6910 ca         1 4T0       0.356000
      2 C18          7.3520    38.2660    24.3760 c          1 4T0       0.605100
      3 C17          7.2350    37.4940    25.6970 c3         1 4T0       0.207800
      4 C15          9.5120    33.5020    27.4030 ca         1 4T0      -0.036000
      5 C21          5.7750    39.7920    22.1540 ca         1 4T0       0.044700
      6 C22          4.6780    39.1410    22.7100 ca         1 4T0      -0.142000
      7 C23          3.6310    38.6570    21.9280 ca         1 4T0       0.029000
      8 C24          3.6870    38.8010    20.5400 ca         1 4T0      -0.178000
      9 C11          8.2930    34.8620    29.0120 ca         1 4T0       0.067000
     10 C12          8.0080    35.7830    27.9860 ca         1 4T0      -0.210000
     11 C34          1.9790    38.2120    23.7250 c          1 4T0       0.607100
     12 N1           6.8850    39.5210    24.3500 n          1 4T0      -0.405800
     13 C2           6.8710    40.2830    23.0910 c5         1 4T0       0.148000
     14 C3           6.6490    41.7260    23.5790 c5         1 4T0      -0.070400
     15 C4           5.8140    41.5620    24.8490 c5         1 4T0      -0.099400
     16 C5           6.3790    40.2970    25.4970 c5         1 4T0       0.101000
     17 N6           8.8790    32.9910    31.0390 nb         1 4T0      -0.770000
     18 C7           8.1710    34.1210    31.2910 ca         1 4T0       0.381900
     19 C8           7.8520    35.0570    30.3490 ca         1 4T0      -0.220000
     20 C9           9.3030    32.7790    29.8020 ca         1 4T0       0.619900
     21 C10          9.0510    33.6930    28.7280 ca         1 4T0      -0.169000
     22 C14          9.2270    34.4050    26.4180 ca         1 4T0      -0.181000
     23 N16          8.2410    36.4550    25.6650 nu         1 4T0      -0.956200
     24 N20         10.0530    31.6460    29.5960 nv         1 4T0      -1.051900
     25 C25          4.7560    39.4620    19.9710 ca         1 4T0      -0.006000
     26 C26          5.7900    39.9740    20.7610 ca         1 4T0      -0.273500
     27 S27          7.0570    40.8330    19.8450 sy         1 4T0       1.043500
     28 O28          6.3930    41.5350    18.7560 o          1 4T0      -0.534500
     29 O29          7.8810    41.6290    20.7390 o          1 4T0      -0.534500
     30 C30          8.0750    39.5230    19.1160 c3         1 4T0      -0.253700
     31 C31          8.7290    38.6780    20.1990 c3         1 4T0      -0.080100
     32 C32          9.0850    40.1640    18.1680 c3         1 4T0      -0.080100
     33 N33          2.5350    37.9960    22.4910 ns         1 4T0      -0.158000
     34 O35          2.4200    39.0260    24.5250 o          1 4T0      -0.572100
     35 C36          5.8120    36.9490    25.8230 ca         1 4T0      -0.124300
     36 C37          5.0290    37.2430    26.9360 ca         1 4T0      -0.088000
     37 C38          3.7510    36.7060    27.0630 ca         1 4T0      -0.107500
     38 C39          3.2430    35.8760    26.0700 ca         1 4T0      -0.105000
     39 C40          4.0170    35.5880    24.9490 ca         1 4T0      -0.107500
     40 C41          5.2950    36.1180    24.8290 ca         1 4T0      -0.088000
     41 C42          0.7450    37.3890    23.9990 c3         1 4T0      -0.178100
     42 H56          7.4300    38.1670    26.5330 h1         1 4T0       0.076700
     43 H54         10.1070    32.6340    27.1480 ha         1 4T0       0.107000
     44 H59          4.6370    38.9820    23.7720 ha         1 4T0       0.148000
     45 H60          2.8890    38.4130    19.9200 ha         1 4T0       0.118000
     46 H52          7.4310    36.6600    28.2360 ha         1 4T0       0.114000
     47 H43          7.8350    40.1770    22.6080 h1         1 4T0       0.098700
     48 H44          7.6190    42.1680    23.8130 hc         1 4T0       0.071200
     49 H45          6.1700    42.3410    22.8220 hc         1 4T0       0.071200
     50 H47          5.8830    42.4210    25.5150 hc         1 4T0       0.064200
     51 H46          4.7630    41.4130    24.5970 hc         1 4T0       0.064200
     52 H49          5.6190    39.7400    26.0410 h1         1 4T0       0.053200
     53 H48          7.1990    40.5280    26.1800 h1         1 4T0       0.053200
     54 H50          7.8510    34.2480    32.3190 h4         1 4T0       0.012100
     55 H51          7.2760    35.9350    30.6110 ha         1 4T0       0.118000
     56 H53          9.5870    34.2430    25.4090 ha         1 4T0       0.115000
     57 H55          8.4720    36.1500    24.7290 hn         1 4T0       0.502000
     58 H57          9.9940    30.9640    30.3380 hn         1 4T0       0.467500
     59 H58         10.0680    31.2440    28.6730 hn         1 4T0       0.467500
     60 H61          4.7860    39.6000    18.9000 ha         1 4T0       0.132000
     61 H62          7.3520    38.9290    18.5520 h1         1 4T0       0.085700
     62 H64          8.0050    38.2560    20.8950 hc         1 4T0       0.055367
     63 H65          9.2620    37.8540    19.7210 hc         1 4T0       0.055367
     64 H63          9.4500    39.2670    20.7660 hc         1 4T0       0.055367
     65 H67          9.6550    39.3690    17.6840 hc         1 4T0       0.055367
     66 H68          8.5960    40.7560    17.3950 hc         1 4T0       0.055367
     67 H66          9.7830    40.7980    18.7150 hc         1 4T0       0.055367
     68 H69          2.0140    37.4000    21.8640 hn         1 4T0       0.152000
     69 H70          5.4220    37.8870    27.7130 ha         1 4T0       0.118000
     70 H71          3.1550    36.9360    27.9370 ha         1 4T0       0.113500
     71 H72          2.2480    35.4610    26.1640 ha         1 4T0       0.109000
     72 H73          3.6220    34.9530    24.1660 ha         1 4T0       0.113500
     73 H74          5.8940    35.8890    23.9570 ha         1 4T0       0.118000
     74 H77          0.5740    37.3500    25.0710 hc         1 4T0       0.066700
     75 H76         -0.1150    37.8680    23.5210 hc         1 4T0       0.066700
     76 H75          0.8360    36.3790    23.6000 hc         1 4T0       0.066700
     77 O19          7.8070    37.7070    23.3750 o          1 4T0      -0.629100
@<TRIPOS>BOND
     1     1    10 ar  
     2     1    22 ar  
     3     1    23 1   
     4     2     3 1   
     5     2    12 1   
     6     2    77 2   
     7     3    23 1   
     8     3    35 1   
     9     3    42 1   
    10     4    21 ar  
    11     4    22 ar  
    12     4    43 1   
    13     5     6 ar  
    14     5    13 1   
    15     5    26 ar  
    16     6     7 ar  
    17     6    44 1   
    18     7     8 ar  
    19     7    33 1   
    20     8    25 ar  
    21     8    45 1   
    22     9    10 ar  
    23     9    19 ar  
    24     9    21 ar  
    25    10    46 1   
    26    11    33 1   
    27    11    34 2   
    28    11    41 1   
    29    12    13 1   
    30    12    16 1   
    31    13    14 1   
    32    13    47 1   
    33    14    15 1   
    34    14    48 1   
    35    14    49 1   
    36    15    16 1   
    37    15    50 1   
    38    15    51 1   
    39    16    52 1   
    40    16    53 1   
    41    17    18 ar  
    42    17    20 ar  
    43    18    19 ar  
    44    18    54 1   
    45    19    55 1   
    46    20    21 ar  
    47    20    24 1   
    48    22    56 1   
    49    23    57 1   
    50    24    58 1   
    51    24    59 1   
    52    25    26 ar  
    53    25    60 1   
    54    26    27 1   
    55    27    28 2   
    56    27    29 2   
    57    27    30 1   
    58    30    31 1   
    59    30    32 1   
    60    30    61 1   
    61    31    62 1   
    62    31    63 1   
    63    31    64 1   
    64    32    65 1   
    65    32    66 1   
    66    32    67 1   
    67    33    68 1   
    68    35    36 ar  
    69    35    40 ar  
    70    36    37 ar  
    71    36    69 1   
    72    37    38 ar  
    73    37    70 1   
    74    38    39 ar  
    75    38    71 1   
    76    39    40 ar  
    77    39    72 1   
    78    40    73 1   
    79    41    74 1   
    80    41    75 1   
    81    41    76 1   
@<TRIPOS>SUBSTRUCTURE
     1 4T0         1 TEMP              0 ****  ****    0 ROOT
