@<TRIPOS>MOLECULE
4T0
   77    81     1     0     0
SMALL
No Charge or Current Charge


@<TRIPOS>ATOM
      1 C13          8.6140    35.5290    26.8030 ca         1 4T0       0.356000
      2 C18          7.5890    38.3640    24.3220 c          1 4T0       0.605100
      3 C17          7.4850    37.5440    25.6680 c3         1 4T0       0.207800
      4 C15          9.1250    33.2470    27.4980 ca         1 4T0      -0.036000
      5 C21          5.7310    39.8960    22.0960 ca         1 4T0       0.044700
      6 C22          4.6590    39.1750    22.6880 ca         1 4T0      -0.142000
      7 C23          3.5830    38.6770    21.9350 ca         1 4T0       0.029000
      8 C24          3.5760    38.8650    20.5510 ca         1 4T0      -0.178000
      9 C11          8.4010    34.8920    29.1390 ca         1 4T0       0.067000
     10 C12          8.3080    35.8650    28.1300 ca         1 4T0      -0.210000
     11 C34          1.9970    37.9970    23.8120 c          1 4T0       0.607100
     12 N1           6.9710    39.6320    24.2510 n          1 4T0      -0.405800
     13 C2           6.9020    40.4050    22.9860 c5         1 4T0       0.148000
     14 C3           6.5410    41.8350    23.4910 c5         1 4T0      -0.070400
     15 C4           5.7360    41.5650    24.7880 c5         1 4T0      -0.099400
     16 C5           6.5350    40.4060    25.4340 c5         1 4T0       0.101000
     17 N6           8.5880    32.9300    31.1630 nb         1 4T0      -0.770000
     18 C7           8.2030    34.1950    31.4470 ca         1 4T0       0.381900
     19 C8           8.0960    35.2000    30.4730 ca         1 4T0      -0.220000
     20 C9           8.8750    32.6600    29.8960 ca         1 4T0       0.619900
     21 C10          8.8050    33.5810    28.8310 ca         1 4T0      -0.169000
     22 C14          9.0280    34.2250    26.4920 ca         1 4T0      -0.181000
     23 N16          8.5230    36.4750    25.7860 nu         1 4T0      -0.956200
     24 N20          9.2220    31.3720    29.7880 nv         1 4T0      -1.051900
     25 C25          4.6040    39.5850    19.9330 ca         1 4T0      -0.006000
     26 C26          5.6750    40.1210    20.6820 ca         1 4T0      -0.273500
     27 S27          6.9120    41.0540    19.7190 sy         1 4T0       1.043500
     28 O28          6.2150    41.6970    18.5960 o          1 4T0      -0.534500
     29 O29          7.7670    41.8500    20.6080 o          1 4T0      -0.534500
     30 C30          7.9630    39.7510    18.9760 c3         1 4T0      -0.253700
     31 C31          8.5670    38.7970    20.0380 c3         1 4T0      -0.080100
     32 C32          9.0580    40.3590    18.0620 c3         1 4T0      -0.080100
     33 N33          2.5110    37.9620    22.5250 ns         1 4T0      -0.158000
     34 O35          2.3730    38.7750    24.6800 o          1 4T0      -0.572100
     35 C36          6.0920    36.9200    25.8070 ca         1 4T0      -0.124300
     36 C37          5.3090    37.1700    26.9530 ca         1 4T0      -0.088000
     37 C38          4.0370    36.5880    27.0860 ca         1 4T0      -0.107500
     38 C39          3.5360    35.7510    26.0760 ca         1 4T0      -0.105000
     39 C40          4.3060    35.5010    24.9280 ca         1 4T0      -0.107500
     40 C41          5.5780    36.0820    24.7940 ca         1 4T0      -0.088000
     41 C42          0.8770    36.9940    24.0680 c3         1 4T0      -0.178100
     42 H56          7.6330    38.2630    26.4840 h1         1 4T0       0.076700
     43 H54          9.4490    32.2440    27.2320 ha         1 4T0       0.107000
     44 H59          4.6620    38.9810    23.7540 ha         1 4T0       0.148000
     45 H60          2.7610    38.4710    19.9490 ha         1 4T0       0.118000
     46 H52          8.0030    36.8750    28.3810 ha         1 4T0       0.114000
     47 H43          7.8670    40.3700    22.4670 h1         1 4T0       0.098700
     48 H44          7.4530    42.4000    23.7150 hc         1 4T0       0.071200
     49 H45          5.9770    42.4220    22.7560 hc         1 4T0       0.071200
     50 H47          5.6780    42.4440    25.4410 hc         1 4T0       0.064200
     51 H46          4.7060    41.2640    24.5650 hc         1 4T0       0.064200
     52 H49          5.9050    39.8210    26.1160 h1         1 4T0       0.053200
     53 H48          7.4050    40.7790    25.9930 h1         1 4T0       0.053200
     54 H50          7.9700    34.4080    32.4900 h4         1 4T0       0.012100
     55 H51          7.7800    36.1980    30.7590 ha         1 4T0       0.118000
     56 H53          9.2710    33.9630    25.4660 ha         1 4T0       0.115000
     57 H55          8.9130    36.1720    24.8910 hn         1 4T0       0.502000
     58 H57          9.0060    30.8180    30.6070 hn         1 4T0       0.467500
     59 H58          9.0780    30.9230    28.8920 hn         1 4T0       0.467500
     60 H61          4.5580    39.7280    18.8540 ha         1 4T0       0.132000
     61 H62          7.2840    39.1650    18.3470 h1         1 4T0       0.085700
     62 H64          7.7780    38.2990    20.6140 hc         1 4T0       0.055367
     63 H65          9.1650    38.0130    19.5570 hc         1 4T0       0.055367
     64 H63          9.2180    39.3380    20.7350 hc         1 4T0       0.055367
     65 H67          9.6360    39.5670    17.5710 hc         1 4T0       0.055367
     66 H68          8.6130    40.9830    17.2770 hc         1 4T0       0.055367
     67 H66          9.7540    40.9800    18.6400 hc         1 4T0       0.055367
     68 H69          2.0500    37.3100    21.9030 hn         1 4T0       0.152000
     69 H70          5.6870    37.8110    27.7460 ha         1 4T0       0.118000
     70 H71          3.4410    36.7830    27.9750 ha         1 4T0       0.113500
     71 H72          2.5530    35.2970    26.1830 ha         1 4T0       0.109000
     72 H73          3.9200    34.8530    24.1450 ha         1 4T0       0.113500
     73 H74          6.1690    35.8730    23.9050 ha         1 4T0       0.118000
     74 H77          0.4960    37.0400    25.0950 hc         1 4T0       0.066700
     75 H76          0.0800    37.1570    23.3350 hc         1 4T0       0.066700
     76 H75          1.2300    35.9890    23.8090 hc         1 4T0       0.066700
     77 O19          8.1520    37.8990    23.3330 o          1 4T0      -0.629100
@<TRIPOS>BOND
     1     1    10 ar  
     2     1    22 ar  
     3     1    23 1   
     4     2     3 1   
     5     2    12 1   
     6     2    77 2   
     7     3    23 1   
     8     3    35 1   
     9     3    42 1   
    10     4    21 ar  
    11     4    22 ar  
    12     4    43 1   
    13     5     6 ar  
    14     5    13 1   
    15     5    26 ar  
    16     6     7 ar  
    17     6    44 1   
    18     7     8 ar  
    19     7    33 1   
    20     8    25 ar  
    21     8    45 1   
    22     9    10 ar  
    23     9    19 ar  
    24     9    21 ar  
    25    10    46 1   
    26    11    33 1   
    27    11    34 2   
    28    11    41 1   
    29    12    13 1   
    30    12    16 1   
    31    13    14 1   
    32    13    47 1   
    33    14    15 1   
    34    14    48 1   
    35    14    49 1   
    36    15    16 1   
    37    15    50 1   
    38    15    51 1   
    39    16    52 1   
    40    16    53 1   
    41    17    18 ar  
    42    17    20 ar  
    43    18    19 ar  
    44    18    54 1   
    45    19    55 1   
    46    20    21 ar  
    47    20    24 1   
    48    22    56 1   
    49    23    57 1   
    50    24    58 1   
    51    24    59 1   
    52    25    26 ar  
    53    25    60 1   
    54    26    27 1   
    55    27    28 2   
    56    27    29 2   
    57    27    30 1   
    58    30    31 1   
    59    30    32 1   
    60    30    61 1   
    61    31    62 1   
    62    31    63 1   
    63    31    64 1   
    64    32    65 1   
    65    32    66 1   
    66    32    67 1   
    67    33    68 1   
    68    35    36 ar  
    69    35    40 ar  
    70    36    37 ar  
    71    36    69 1   
    72    37    38 ar  
    73    37    70 1   
    74    38    39 ar  
    75    38    71 1   
    76    39    40 ar  
    77    39    72 1   
    78    40    73 1   
    79    41    74 1   
    80    41    75 1   
    81    41    76 1   
@<TRIPOS>SUBSTRUCTURE
     1 4T0         1 TEMP              0 ****  ****    0 ROOT
