@<TRIPOS>MOLECULE
4T1
   62    66     1     0     0
SMALL
abcg2


@<TRIPOS>ATOM
      1 C13          8.0320    35.6390    25.5690 c3         1 4T1       0.142800
      2 C18          4.5370    34.2390    24.9980 ca         1 4T1      -0.102000
      3 C17          5.8770    34.5370    24.8160 ca         1 4T1      -0.086500
      4 C15          8.1500    36.4360    24.2580 c          1 4T1       0.604100
      5 C19          3.8250    34.7340    26.0950 ca         1 4T1      -0.074300
      6 C20          4.5470    35.4190    27.0720 ca         1 4T1      -0.102000
      7 C21          5.8970    35.7070    26.9140 ca         1 4T1      -0.086500
      8 C22          2.3350    34.4810    26.2540 c3         1 4T1      -0.029100
      9 C23          7.5640    38.5480    23.1780 c3         1 4T1       0.164300
     10 C27          4.9960    38.1360    20.4140 ca         1 4T1      -0.092000
     11 C33          1.2760    36.3660    24.8920 c3         1 4T1      -0.168400
     12 C1          10.1490    33.3770    31.3670 ca         1 4T1       0.361900
     13 N2          10.6810    32.1320    31.2200 nb         1 4T1      -0.743000
     14 C3          10.7080    31.6090    30.0110 ca         1 4T1       0.569900
     15 C4          10.1770    32.2640    28.8540 ca         1 4T1      -0.134000
     16 C5           9.6010    33.5590    29.0300 ca         1 4T1       0.040000
     17 C6           9.6200    34.1070    30.3390 ca         1 4T1      -0.189000
     18 C7          10.3650    31.8030    27.5380 ca         1 4T1      -0.040000
     19 C8           9.8800    32.4910    26.4540 ca         1 4T1      -0.156000
     20 C9           9.3190    33.7810    26.6270 ca         1 4T1       0.287000
     21 C10          9.1740    34.2910    27.9050 ca         1 4T1      -0.181000
     22 N11          8.9260    34.4600    25.4570 nu         1 4T1      -0.860200
     23 C14          6.5860    35.2400    25.7910 ca         1 4T1      -0.133300
     24 O16          8.5090    35.9210    23.2070 o          1 4T1      -0.575100
     25 N24          7.7930    37.7350    24.3660 ns         1 4T1      -0.517900
     26 C25          6.3100    38.1550    22.4380 ca         1 4T1      -0.074300
     27 C26          6.1500    38.5020    21.0950 ca         1 4T1      -0.109000
     28 C28          3.9090    37.6040    21.1080 ca         1 4T1      -0.141000
     29 C29          4.0300    37.3470    22.4700 ca         1 4T1      -0.039000
     30 C30          5.2370    37.6050    23.1260 ca         1 4T1      -0.091000
     31 N31          2.9740    36.7260    23.1730 ns         1 4T1      -0.158000
     32 C32          2.4720    37.1490    24.3660 c          1 4T1       0.597100
     33 O34          2.9630    38.0770    25.0030 o          1 4T1      -0.588100
     34 C35          1.4780    34.8460    25.0410 c3         1 4T1      -0.057400
     35 H44          8.4160    36.2430    26.3890 h1         1 4T1       0.076700
     36 H46          3.9650    33.7700    24.2060 ha         1 4T1       0.112500
     37 H45          6.4170    34.1640    23.9520 ha         1 4T1       0.119500
     38 H47          4.0510    35.7430    27.9820 ha         1 4T1       0.112500
     39 H48          6.4740    36.1630    27.7110 ha         1 4T1       0.119500
     40 H49          1.9850    34.9790    27.1570 hc         1 4T1       0.055200
     41 H50          2.2560    33.3960    26.3880 hc         1 4T1       0.055200
     42 H51          8.4470    38.5440    22.5380 h1         1 4T1       0.056700
     43 H52          7.4760    39.5720    23.5500 h1         1 4T1       0.056700
     44 H60          1.0230    36.8320    25.8440 hc         1 4T1       0.067700
     45 H59          0.4440    36.5890    24.2150 hc         1 4T1       0.067700
     46 H36         10.1420    33.7490    32.3860 h4         1 4T1       0.017100
     47 H37          9.2130    35.0880    30.5500 ha         1 4T1       0.120000
     48 H38         10.8020    30.8280    27.3580 ha         1 4T1       0.121000
     49 H39         10.0980    32.1070    25.4660 ha         1 4T1       0.127000
     50 H40          8.7300    35.2620    28.0750 ha         1 4T1       0.114000
     51 H41          8.4480    33.7850    24.8690 hn         1 4T1       0.446000
     52 H43         11.4610    29.9410    30.7850 hn         1 4T1       0.431500
     53 H42         10.5820    29.6630    29.4600 hn         1 4T1       0.431500
     54 H53          7.8320    38.1460    25.2850 hn         1 4T1       0.322500
     55 H54          6.9700    38.9710    20.5630 ha         1 4T1       0.115000
     56 H56          3.0180    37.2800    20.5810 ha         1 4T1       0.111000
     57 H57          5.2660    37.4260    24.1890 ha         1 4T1       0.140000
     58 H58          2.4510    36.0080    22.6960 hn         1 4T1       0.148000
     59 H61          0.4690    34.4700    25.2270 hc         1 4T1       0.047700
     60 H62          1.8560    34.4250    24.1110 hc         1 4T1       0.047700
     61 N12         11.2420    30.3200    29.8690 nv         1 4T1      -0.992900
     62 H55          4.8530    38.4090    19.3750 ha         1 4T1       0.115000
@<TRIPOS>BOND
     1     1     4 1   
     2     1    22 1   
     3     1    23 1   
     4     1    35 1   
     5     2     3 ar  
     6     2     5 ar  
     7     2    36 1   
     8     3    23 ar  
     9     3    37 1   
    10     4    24 2   
    11     4    25 1   
    12     5     6 ar  
    13     5     8 1   
    14     6     7 ar  
    15     6    38 1   
    16     7    23 ar  
    17     7    39 1   
    18     8    34 1   
    19     8    40 1   
    20     8    41 1   
    21     9    25 1   
    22     9    26 1   
    23     9    42 1   
    24     9    43 1   
    25    10    27 ar  
    26    10    28 ar  
    27    10    62 1   
    28    11    32 1   
    29    11    34 1   
    30    11    44 1   
    31    11    45 1   
    32    12    13 ar  
    33    12    17 ar  
    34    12    46 1   
    35    13    14 ar  
    36    14    15 ar  
    37    14    61 1   
    38    15    16 ar  
    39    15    18 ar  
    40    16    17 ar  
    41    16    21 ar  
    42    17    47 1   
    43    18    19 ar  
    44    18    48 1   
    45    19    20 ar  
    46    19    49 1   
    47    20    21 ar  
    48    20    22 1   
    49    21    50 1   
    50    22    51 1   
    51    25    54 1   
    52    26    27 ar  
    53    26    30 ar  
    54    27    55 1   
    55    28    29 ar  
    56    28    56 1   
    57    29    30 ar  
    58    29    31 1   
    59    30    57 1   
    60    31    32 1   
    61    31    58 1   
    62    32    33 2   
    63    34    59 1   
    64    34    60 1   
    65    52    61 1   
    66    53    61 1   
@<TRIPOS>SUBSTRUCTURE
     1 4T1         1 TEMP              0 ****  ****    0 ROOT
