@<TRIPOS>MOLECULE
4T1
   62    66     1     0     0
SMALL
No Charge or Current Charge


@<TRIPOS>ATOM
      1 C13          8.3830    36.1170    25.4840 c3         1 4T1       0.142800
      2 C18          4.9700    34.3430    25.3570 ca         1 4T1      -0.102000
      3 C17          6.2920    34.7130    25.0600 ca         1 4T1      -0.086500
      4 C15          8.3790    36.8660    24.1050 c          1 4T1       0.604100
      5 C19          4.2790    34.9510    26.4250 ca         1 4T1      -0.074300
      6 C20          4.9500    35.9110    27.2080 ca         1 4T1      -0.102000
      7 C21          6.2740    36.2800    26.9140 ca         1 4T1      -0.086500
      8 C22          2.8370    34.5610    26.7640 c3         1 4T1      -0.029100
      9 C23          7.4070    38.8670    22.9400 c3         1 4T1       0.164300
     10 C27          4.9340    37.6210    20.2830 ca         1 4T1      -0.092000
     11 C33          1.3780    35.9260    25.0330 c3         1 4T1      -0.168400
     12 C1           9.3080    32.8710    31.2840 ca         1 4T1       0.361900
     13 N2           9.7120    31.6060    31.0290 nb         1 4T1      -0.743000
     14 C3           9.9470    31.2890    29.7580 ca         1 4T1       0.569900
     15 C4           9.8030    32.1720    28.6650 ca         1 4T1      -0.134000
     16 C5           9.3800    33.4850    28.9430 ca         1 4T1       0.040000
     17 C6           9.1290    33.8360    30.2790 ca         1 4T1      -0.189000
     18 C7          10.0670    31.7980    27.3300 ca         1 4T1      -0.040000
     19 C8           9.8980    32.7340    26.2940 ca         1 4T1      -0.156000
     20 C9           9.4680    34.0410    26.5740 ca         1 4T1       0.287000
     21 C10          9.2150    34.4170    27.9050 ca         1 4T1      -0.181000
     22 N11          9.3080    34.9450    25.5220 nu         1 4T1      -0.860200
     23 C14          6.9560    35.6860    25.8340 ca         1 4T1      -0.133300
     24 O16          8.8180    36.3770    23.0680 o          1 4T1      -0.575100
     25 N24          7.7980    38.1170    24.1330 ns         1 4T1      -0.517900
     26 C25          6.1570    38.2780    22.2870 ca         1 4T1      -0.074300
     27 C26          6.0670    38.1930    20.8850 ca         1 4T1      -0.109000
     28 C28          3.8850    37.1290    21.0780 ca         1 4T1      -0.141000
     29 C29          3.9510    37.2200    22.4800 ca         1 4T1      -0.039000
     30 C30          5.0920    37.7960    23.0780 ca         1 4T1      -0.091000
     31 N31          2.8820    36.6750    23.2400 ns         1 4T1      -0.158000
     32 C32          2.5270    36.8330    24.5740 c          1 4T1       0.597100
     33 O34          3.0440    37.6480    25.3300 o          1 4T1      -0.588100
     34 C35          1.8470    34.5440    25.5680 c3         1 4T1      -0.057400
     35 H44          8.7190    36.8550    26.2260 h1         1 4T1       0.076700
     36 H46          4.4900    33.5790    24.7520 ha         1 4T1       0.112500
     37 H45          6.8030    34.2410    24.2240 ha         1 4T1       0.119500
     38 H47          4.4400    36.3850    28.0440 ha         1 4T1       0.112500
     39 H48          6.7660    37.0320    27.5260 ha         1 4T1       0.119500
     40 H49          2.4320    35.2200    27.5420 hc         1 4T1       0.055200
     41 H50          2.8490    33.5570    27.2070 hc         1 4T1       0.055200
     42 H51          8.2430    38.8670    22.2270 h1         1 4T1       0.056700
     43 H52          7.2090    39.9080    23.2270 h1         1 4T1       0.056700
     44 H60          0.8100    36.4360    25.8200 hc         1 4T1       0.067700
     45 H59          0.7290    35.7130    24.1750 hc         1 4T1       0.067700
     46 H36          9.1190    33.1190    32.3280 h4         1 4T1       0.017100
     47 H37          8.8010    34.8370    30.5430 ha         1 4T1       0.120000
     48 H38         10.4030    30.7930    27.0860 ha         1 4T1       0.121000
     49 H39         10.1010    32.4390    25.2690 ha         1 4T1       0.127000
     50 H40          8.8930    35.4270    28.1350 ha         1 4T1       0.114000
     51 H41          9.6170    34.6070    24.6100 hn         1 4T1       0.446000
     52 H43         10.1910    29.4540    30.5100 hn         1 4T1       0.431500
     53 H42         10.2120    29.5270    28.7850 hn         1 4T1       0.431500
     54 H53          7.4670    38.4450    25.0320 hn         1 4T1       0.322500
     55 H54          6.8780    38.5610    20.2600 ha         1 4T1       0.115000
     56 H56          3.0180    36.6780    20.6000 ha         1 4T1       0.111000
     57 H57          5.1750    37.8470    24.1590 ha         1 4T1       0.140000
     58 H58          2.3090    36.0150    22.7310 hn         1 4T1       0.148000
     59 H61          0.9520    33.9940    25.8860 hc         1 4T1       0.047700
     60 H62          2.2670    33.9600    24.7410 hc         1 4T1       0.047700
     61 N12         10.3270    30.0030    29.6700 nv         1 4T1      -0.992900
     62 H55          4.8730    37.5510    19.1990 ha         1 4T1       0.115000
@<TRIPOS>BOND
     1     1     4 1   
     2     1    22 1   
     3     1    23 1   
     4     1    35 1   
     5     2     3 ar  
     6     2     5 ar  
     7     2    36 1   
     8     3    23 ar  
     9     3    37 1   
    10     4    24 2   
    11     4    25 1   
    12     5     6 ar  
    13     5     8 1   
    14     6     7 ar  
    15     6    38 1   
    16     7    23 ar  
    17     7    39 1   
    18     8    34 1   
    19     8    40 1   
    20     8    41 1   
    21     9    25 1   
    22     9    26 1   
    23     9    42 1   
    24     9    43 1   
    25    10    27 ar  
    26    10    28 ar  
    27    10    62 1   
    28    11    32 1   
    29    11    34 1   
    30    11    44 1   
    31    11    45 1   
    32    12    13 ar  
    33    12    17 ar  
    34    12    46 1   
    35    13    14 ar  
    36    14    15 ar  
    37    14    61 1   
    38    15    16 ar  
    39    15    18 ar  
    40    16    17 ar  
    41    16    21 ar  
    42    17    47 1   
    43    18    19 ar  
    44    18    48 1   
    45    19    20 ar  
    46    19    49 1   
    47    20    21 ar  
    48    20    22 1   
    49    21    50 1   
    50    22    51 1   
    51    25    54 1   
    52    26    27 ar  
    53    26    30 ar  
    54    27    55 1   
    55    28    29 ar  
    56    28    56 1   
    57    29    30 ar  
    58    29    31 1   
    59    30    57 1   
    60    31    32 1   
    61    31    58 1   
    62    32    33 2   
    63    34    59 1   
    64    34    60 1   
    65    52    61 1   
    66    53    61 1   
@<TRIPOS>SUBSTRUCTURE
     1 4T1         1 TEMP              0 ****  ****    0 ROOT
