@<TRIPOS>MOLECULE
4T2
   53    54     1     0     0
SMALL
abcg2


@<TRIPOS>ATOM
      1 CAA          6.6870    -1.6290     0.8410 c3         1 4T2      -0.109433
      2 CBC          6.1970    -1.7550    -0.5960 c3         1 4T2       0.225000
      3 CAB          7.0100    -0.8890    -1.5510 c3         1 4T2      -0.109433
      4 CAC          6.2590    -3.2120    -1.0390 c3         1 4T2      -0.109433
      5 OAT          4.7790    -1.4420    -0.6900 os         1 4T2      -0.471100
      6 CAV          4.2910    -0.2480    -0.3750 c          1 4T2       0.656100
      7 OAE          4.9260     0.7140     0.0090 o          1 4T2      -0.556000
      8 N            2.9500    -0.2200    -0.5360 ns         1 4T2      -0.495900
      9 CA           2.2200     0.9880    -0.2740 c3         1 4T2       0.110000
     10 C            2.4100     1.4180     1.1880 c          1 4T2       0.609100
     11 O            2.4490     0.6230     2.1040 o          1 4T2      -0.562100
     12 NAR          2.4630     2.7490     1.3330 ns         1 4T2      -0.384400
     13 OAH          2.4040     3.3120     2.5690 oh         1 4T2      -0.418100
     14 CBA          0.7410     0.7840    -0.5000 ca         1 4T2      -0.116300
     15 CAO          0.0260     1.6800    -1.2850 ca         1 4T2      -0.088500
     16 CAM         -1.3400     1.5300    -1.4660 ca         1 4T2      -0.101000
     17 CAN          0.0600    -0.2710     0.1030 ca         1 4T2      -0.088500
     18 CAL         -1.3030    -0.4240    -0.0840 ca         1 4T2      -0.101000
     19 CAY         -2.0290     0.4750    -0.8680 cp         1 4T2      -0.018000
     20 CAZ         -3.4850     0.3210    -1.0550 cp         1 4T2      -0.047000
     21 CAP         -4.2890    -0.1340    -0.0130 ca         1 4T2      -0.056000
     22 CAK         -4.0840     0.6280    -2.2780 ca         1 4T2      -0.085000
     23 CAI         -5.4520     0.4850    -2.4450 ca         1 4T2      -0.119000
     24 CAJ         -6.2440     0.0350    -1.4000 ca         1 4T2      -0.085000
     25 CAX         -5.6650    -0.2790    -0.1720 ca         1 4T2      -0.142900
     26 CAU         -6.5010    -0.7360     0.9590 ce         1 4T2       0.625800
     27 NAD         -7.6680    -1.3760     0.6590 nv         1 4T2      -1.038200
     28 NAQ         -6.0940    -0.4400     2.1370 n2         1 4T2      -0.414700
     29 OAG         -6.9490    -0.9370     3.1060 oh         1 4T2      -0.537000
     30 H1           6.0670    -2.2160     1.5200 hc         1 4T2       0.050033
     31 H2           7.7050    -2.0170     0.9060 hc         1 4T2       0.050033
     32 H3           6.7020    -0.5980     1.1860 hc         1 4T2       0.050033
     33 H4           8.0350    -1.2590    -1.5820 hc         1 4T2       0.050033
     34 H5           6.6110    -0.9410    -2.5650 hc         1 4T2       0.050033
     35 H6           7.0420     0.1530    -1.2420 hc         1 4T2       0.050033
     36 H7           5.6570    -3.8510    -0.3910 hc         1 4T2       0.050033
     37 H8           5.9080    -3.3330    -2.0650 hc         1 4T2       0.050033
     38 H9           7.2880    -3.5650    -0.9950 hc         1 4T2       0.050033
     39 H10          2.4690    -1.0160    -0.9220 hn         1 4T2       0.340500
     40 H11          2.5630     1.7900    -0.9360 h1         1 4T2       0.061700
     41 H12          2.4050     3.3970     0.5600 hn         1 4T2       0.338500
     42 H13          3.3180     3.4360     2.8570 ho         1 4T2       0.443000
     43 H14          0.5360     2.5110    -1.7580 ha         1 4T2       0.123500
     44 H15         -1.8750     2.2560    -2.0650 ha         1 4T2       0.119500
     45 H16          0.5900    -0.9810     0.7250 ha         1 4T2       0.123500
     46 H17         -1.8040    -1.2650     0.3780 ha         1 4T2       0.119500
     47 H18         -3.8450    -0.3700     0.9460 ha         1 4T2       0.136000
     48 H19         -3.4790     0.9610    -3.1120 ha         1 4T2       0.116000
     49 H20         -5.9050     0.7270    -3.3970 ha         1 4T2       0.117000
     50 H21         -7.3140    -0.0520    -1.5410 ha         1 4T2       0.123000
     51 H22         -7.6880    -1.9130    -0.1920 hn         1 4T2       0.470500
     52 H24         -6.5360    -0.6760     3.9340 ho         1 4T2       0.468000
     53 H25         -8.1610    -1.8130     1.4210 hn         1 4T2       0.470500
@<TRIPOS>BOND
     1     1     2 1   
     2     1    30 1   
     3     1    31 1   
     4     1    32 1   
     5     2     3 1   
     6     2     4 1   
     7     2     5 1   
     8     3    33 1   
     9     3    34 1   
    10     3    35 1   
    11     4    36 1   
    12     4    37 1   
    13     4    38 1   
    14     5     6 1   
    15     6     7 2   
    16     6     8 1   
    17     8     9 1   
    18     8    39 1   
    19     9    10 1   
    20     9    14 1   
    21     9    40 1   
    22    10    11 2   
    23    10    12 1   
    24    12    13 1   
    25    12    41 1   
    26    13    42 1   
    27    14    15 ar  
    28    14    17 ar  
    29    15    16 ar  
    30    15    43 1   
    31    16    19 ar  
    32    16    44 1   
    33    17    18 ar  
    34    17    45 1   
    35    18    19 ar  
    36    18    46 1   
    37    19    20 1   
    38    20    21 ar  
    39    20    22 ar  
    40    21    25 ar  
    41    21    47 1   
    42    22    23 ar  
    43    22    48 1   
    44    23    24 ar  
    45    23    49 1   
    46    24    25 ar  
    47    24    50 1   
    48    25    26 1   
    49    26    27 1   
    50    26    28 2   
    51    27    51 1   
    52    27    53 1   
    53    28    29 1   
    54    29    52 1   
@<TRIPOS>SUBSTRUCTURE
     1 4T2         1 TEMP              0 ****  ****    0 ROOT
