@<TRIPOS>MOLECULE
4T2
   53    54     1     0     0
SMALL
No Charge or Current Charge


@<TRIPOS>ATOM
      1 CAA          7.1420    -1.4640     0.2390 c3         1 4T2      -0.109433
      2 CBC          6.1910    -1.8250    -0.9310 c3         1 4T2       0.225000
      3 CAB          6.5860    -1.1450    -2.2670 c3         1 4T2      -0.109433
      4 CAC          6.1430    -3.3580    -1.1160 c3         1 4T2      -0.109433
      5 OAT          4.8330    -1.4650    -0.5840 os         1 4T2      -0.471100
      6 CAV          4.4560    -0.1740    -0.3340 c          1 4T2       0.656100
      7 OAE          5.1570     0.8240    -0.3670 o          1 4T2      -0.556000
      8 N            3.1250    -0.1710    -0.0400 ns         1 4T2      -0.495900
      9 CA           2.3460     1.0360     0.2880 c3         1 4T2       0.110000
     10 C            2.5290     1.4650     1.7790 c          1 4T2       0.609100
     11 O            3.1380     0.7960     2.6100 o          1 4T2      -0.562100
     12 NAR          1.9280     2.6780     2.1100 ns         1 4T2      -0.384400
     13 OAH          1.7720     3.0830     3.4930 oh         1 4T2      -0.418100
     14 CBA          0.8740     0.8200    -0.0620 ca         1 4T2      -0.116300
     15 CAO          0.2910     1.5180    -1.1360 ca         1 4T2      -0.088500
     16 CAM         -1.0620     1.3210    -1.4610 ca         1 4T2      -0.101000
     17 CAN          0.0850    -0.0820     0.6780 ca         1 4T2      -0.088500
     18 CAL         -1.2680    -0.2760     0.3520 ca         1 4T2      -0.101000
     19 CAY         -1.8710     0.4220    -0.7240 cp         1 4T2      -0.018000
     20 CAZ         -3.3130     0.2130    -1.0730 cp         1 4T2      -0.047000
     21 CAP         -4.2850    -0.0080    -0.0640 ca         1 4T2      -0.056000
     22 CAK         -3.7480     0.2350    -2.4190 ca         1 4T2      -0.085000
     23 CAI         -5.1000     0.0490    -2.7430 ca         1 4T2      -0.119000
     24 CAJ         -6.0460    -0.1700    -1.7310 ca         1 4T2      -0.085000
     25 CAX         -5.6500    -0.2200    -0.3730 ca         1 4T2      -0.142900
     26 CAU         -6.6560    -0.4120     0.7290 ce         1 4T2       0.625800
     27 NAD         -7.8090    -1.0740     0.3860 nv         1 4T2      -1.038200
     28 NAQ         -6.4020    -0.0500     1.9540 n2         1 4T2      -0.414700
     29 OAG         -7.3190    -0.4670     2.9640 oh         1 4T2      -0.537000
     30 H1           6.7390    -1.8230     1.1930 hc         1 4T2       0.050033
     31 H2           8.1240    -1.9290     0.0900 hc         1 4T2       0.050033
     32 H3           7.3040    -0.3830     0.3170 hc         1 4T2       0.050033
     33 H4           7.5140    -1.5800    -2.6570 hc         1 4T2       0.050033
     34 H5           5.8040    -1.2860    -3.0220 hc         1 4T2       0.050033
     35 H6           6.7590    -0.0700    -2.1450 hc         1 4T2       0.050033
     36 H7           5.8220    -3.8520    -0.1910 hc         1 4T2       0.050033
     37 H8           5.4400    -3.6330    -1.9120 hc         1 4T2       0.050033
     38 H9           7.1310    -3.7500    -1.3840 hc         1 4T2       0.050033
     39 H10          2.6660    -1.0720    -0.0500 hn         1 4T2       0.340500
     40 H11          2.7310     1.8640    -0.3200 h1         1 4T2       0.061700
     41 H12          1.2940     3.1130     1.4400 hn         1 4T2       0.338500
     42 H13          2.1070     4.0100     3.5040 ho         1 4T2       0.443000
     43 H14          0.8840     2.2170    -1.7240 ha         1 4T2       0.123500
     44 H15         -1.4890     1.8840    -2.2870 ha         1 4T2       0.119500
     45 H16          0.5180    -0.6380     1.5080 ha         1 4T2       0.123500
     46 H17         -1.8490    -0.9880     0.9320 ha         1 4T2       0.119500
     47 H18         -3.9670    -0.0100     0.9760 ha         1 4T2       0.136000
     48 H19         -3.0300     0.3900    -3.2220 ha         1 4T2       0.116000
     49 H20         -5.4160     0.0780    -3.7840 ha         1 4T2       0.117000
     50 H21         -7.0910    -0.2880    -2.0110 ha         1 4T2       0.123000
     51 H22         -7.7140    -1.7440    -0.3680 hn         1 4T2       0.470500
     52 H24         -6.9660    -0.0980     3.8110 ho         1 4T2       0.468000
     53 H25         -8.3240    -1.3930     1.1990 hn         1 4T2       0.470500
@<TRIPOS>BOND
     1     1     2 1   
     2     1    30 1   
     3     1    31 1   
     4     1    32 1   
     5     2     3 1   
     6     2     4 1   
     7     2     5 1   
     8     3    33 1   
     9     3    34 1   
    10     3    35 1   
    11     4    36 1   
    12     4    37 1   
    13     4    38 1   
    14     5     6 1   
    15     6     7 2   
    16     6     8 1   
    17     8     9 1   
    18     8    39 1   
    19     9    10 1   
    20     9    14 1   
    21     9    40 1   
    22    10    11 2   
    23    10    12 1   
    24    12    13 1   
    25    12    41 1   
    26    13    42 1   
    27    14    15 ar  
    28    14    17 ar  
    29    15    16 ar  
    30    15    43 1   
    31    16    19 ar  
    32    16    44 1   
    33    17    18 ar  
    34    17    45 1   
    35    18    19 ar  
    36    18    46 1   
    37    19    20 1   
    38    20    21 ar  
    39    20    22 ar  
    40    21    25 ar  
    41    21    47 1   
    42    22    23 ar  
    43    22    48 1   
    44    23    24 ar  
    45    23    49 1   
    46    24    25 ar  
    47    24    50 1   
    48    25    26 1   
    49    26    27 1   
    50    26    28 2   
    51    27    51 1   
    52    27    53 1   
    53    28    29 1   
    54    29    52 1   
@<TRIPOS>SUBSTRUCTURE
     1 4T2         1 TEMP              0 ****  ****    0 ROOT
