@<TRIPOS>MOLECULE
4T3
   46    50     1     0     0
SMALL
No Charge or Current Charge


@<TRIPOS>ATOM
      1 C4           2.2540    -1.5330     0.1200 ca         1 4T3      -0.387000
      2 C5           3.1670    -0.5080     0.0970 ca         1 4T3       0.205800
      3 C7           1.4770     1.0110    -0.1100 ca         1 4T3       0.417900
      4 C13         -3.5630    -1.7150     0.0610 cc         1 4T3      -0.094300
      5 C17         -4.8680    -1.0270     0.1020 cx         1 4T3      -0.070400
      6 C21          2.0420     3.4950    -0.2290 c6         1 4T3       0.214800
      7 C22          1.4380     4.7810     0.3820 c6         1 4T3      -0.125400
      8 C24         -0.8690     3.9950    -0.2550 c6         1 4T3      -0.125400
      9 C1           4.5270    -0.9640     0.2050 cc         1 4T3      -0.303800
     10 C2           4.5980    -2.3470     0.3070 cd         1 4T3      -0.132400
     11 S3           2.9940    -3.1410     0.2760 ss         1 4T3       0.073400
     12 N6           2.8070     0.7770    -0.0150 nb         1 4T3      -0.251000
     13 N8           0.5090     0.0660    -0.0910 nb         1 4T3      -0.311000
     14 C9           0.9010    -1.2120     0.0280 ca         1 4T3       0.474900
     15 N10         -0.0470    -2.2150     0.0410 nu         1 4T3      -0.886800
     16 C11         -1.3960    -2.2610     0.0290 cd         1 4T3       0.507900
     17 C12         -2.3010    -1.1910     0.0910 cd         1 4T3      -0.216000
     18 N14         -3.3140    -3.0930    -0.0140 na         1 4T3      -0.002200
     19 N16         -1.9650    -3.4320    -0.0300 nc         1 4T3      -0.580800
     20 C18         -6.0340    -1.5770    -0.6880 cx         1 4T3      -0.123400
     21 C19         -6.0340    -1.6640     0.8210 cx         1 4T3      -0.123400
     22 N20          1.0540     2.3670    -0.2270 nh         1 4T3      -0.747300
     23 C23          0.1270     5.1680    -0.3270 c6         1 4T3       0.155500
     24 C25         -0.2560     2.7150    -0.8700 c6         1 4T3       0.214800
     25 N26         -0.4530     6.3760     0.2870 n8         1 4T3      -0.988200
     26 H1          -4.7810     0.0560     0.1650 hc         1 4T3       0.097700
     27 H2           2.3740     3.7020    -1.2580 h1         1 4T3       0.065950
     28 H3           2.9400     3.2470     0.3560 h1         1 4T3       0.065950
     29 H4           1.2570     4.6200     1.4540 hc         1 4T3       0.053450
     30 H5           2.1670     5.5990     0.3040 hc         1 4T3       0.053450
     31 H6          -1.1490     3.7950     0.7890 hc         1 4T3       0.053450
     32 H7          -1.7950     4.2460    -0.7890 hc         1 4T3       0.053450
     33 H8           5.3960    -0.3120     0.2060 ha         1 4T3       0.218000
     34 H9           5.4890    -2.9610     0.4000 h4         1 4T3       0.218000
     35 H10          0.3490    -3.1460     0.0570 hn         1 4T3       0.516000
     36 H11         -2.0560    -0.1400     0.1580 ha         1 4T3       0.165000
     37 H12         -4.0330    -3.8150    -0.0520 hn         1 4T3       0.372000
     38 H13         -6.7090    -0.8630    -1.1540 hc         1 4T3       0.075450
     39 H14         -5.8900    -2.4950    -1.2510 hc         1 4T3       0.075450
     40 H15         -5.8910    -2.6420     1.2740 hc         1 4T3       0.075450
     41 H16         -6.7100    -1.0090     1.3660 hc         1 4T3       0.075450
     42 H17          0.3410     5.3970    -1.3840 h1         1 4T3       0.055700
     43 H18         -0.9970     1.9100    -0.7620 h1         1 4T3       0.065950
     44 H19         -0.1100     2.8680    -1.9500 h1         1 4T3       0.065950
     45 H20         -1.3600     6.5670    -0.1540 hn         1 4T3       0.391500
     46 H21         -0.7010     6.1600     1.2590 hn         1 4T3       0.391500
@<TRIPOS>BOND
     1     1     2 ar  
     2     1    11 1   
     3     1    14 ar  
     4     2     9 1   
     5     2    12 ar  
     6     3    12 ar  
     7     3    13 ar  
     8     3    22 1   
     9     4     5 1   
    10     4    17 2   
    11     4    18 1   
    12     5    20 1   
    13     5    21 1   
    14     5    26 1   
    15     6     7 1   
    16     6    22 1   
    17     6    27 1   
    18     6    28 1   
    19     7    23 1   
    20     7    29 1   
    21     7    30 1   
    22     8    23 1   
    23     8    24 1   
    24     8    31 1   
    25     8    32 1   
    26     9    10 2   
    27     9    33 1   
    28    10    11 1   
    29    10    34 1   
    30    13    14 ar  
    31    14    15 1   
    32    15    16 1   
    33    15    35 1   
    34    16    17 1   
    35    16    19 2   
    36    17    36 1   
    37    18    19 1   
    38    18    37 1   
    39    20    21 1   
    40    20    38 1   
    41    20    39 1   
    42    21    40 1   
    43    21    41 1   
    44    22    24 1   
    45    23    25 1   
    46    23    42 1   
    47    24    43 1   
    48    24    44 1   
    49    25    45 1   
    50    25    46 1   
@<TRIPOS>SUBSTRUCTURE
     1 4T3         1 TEMP              0 ****  ****    0 ROOT
