@<TRIPOS>MOLECULE
4T3
   46    50     1     0     0
SMALL
bcc


@<TRIPOS>ATOM
      1 C4           2.2550    -1.2410     0.3720 ca         1 4T3      -0.390700
      2 C5           3.1360    -0.2020     0.0840 ca         1 4T3       0.534100
      3 C7           1.4390     1.0850    -0.6510 ca         1 4T3       0.943900
      4 C13         -3.5270    -1.4290    -0.0570 cc         1 4T3      -0.043600
      5 C17         -4.8280    -0.8200    -0.3610 cx         1 4T3      -0.070400
      6 C21          1.8360     3.4330    -1.1670 c6         1 4T3       0.214800
      7 C22          1.5440     4.2400     0.0940 c6         1 4T3      -0.125400
      8 C24         -0.8040     3.3470     0.0140 c6         1 4T3      -0.125400
      9 C1           4.4890    -0.5580     0.4040 cc         1 4T3      -0.253800
     10 C2           4.5810    -1.8100     0.9080 cd         1 4T3      -0.082400
     11 S3           3.0640    -2.6210     1.0280 ss         1 4T3      -0.053500
     12 N6           2.7410     0.9700    -0.4230 nb         1 4T3      -0.777000
     13 N8           0.5090     0.1440    -0.3990 nb         1 4T3      -0.837000
     14 C9           0.8890    -1.0100     0.1120 ca         1 4T3       0.803200
     15 N10         -0.0240    -1.9680     0.3890 nu         1 4T3      -0.831600
     16 C11         -1.4040    -1.9180     0.2630 cd         1 4T3       0.573200
     17 C12         -2.2620    -0.8840    -0.1590 cd         1 4T3      -0.299300
     18 N14         -3.3570    -2.6830     0.3920 na         1 4T3      -0.002600
     19 N16         -2.0750    -3.0040     0.5950 nc         1 4T3      -0.580800
     20 C18         -5.9500    -1.6260    -0.9610 cx         1 4T3      -0.123400
     21 C19         -6.0540    -1.1490     0.4480 cx         1 4T3      -0.123400
     22 N20          1.0010     2.2450    -1.2180 nh         1 4T3      -0.747300
     23 C23          0.0630     4.5970     0.1980 c6         1 4T3       0.155500
     24 C25         -0.4110     2.5810    -1.2460 c6         1 4T3       0.214800
     25 N26         -0.1850     5.3220     1.4360 n8         1 4T3      -0.877800
     26 H1          -4.7420     0.2050    -0.7000 hc         1 4T3       0.097700
     27 H2           1.6150     4.0340    -2.0540 h1         1 4T3       0.065950
     28 H3           2.8840     3.1510    -1.2190 h1         1 4T3       0.065950
     29 H4           1.8500     3.6580     0.9710 hc         1 4T3       0.053450
     30 H5           2.1460     5.1520     0.0950 hc         1 4T3       0.053450
     31 H6          -0.6910     2.6900     0.8830 hc         1 4T3       0.053450
     32 H7          -1.8590     3.6310    -0.0380 hc         1 4T3       0.053450
     33 H8           5.3340     0.0980     0.2540 ha         1 4T3       0.168000
     34 H9           5.4760    -2.3240     1.2240 h4         1 4T3       0.168000
     35 H10          0.3150    -2.8400     0.7690 hn         1 4T3       0.460800
     36 H11         -2.0060     0.1050    -0.4840 ha         1 4T3       0.183000
     37 H12         -4.0660    -3.3700     0.5930 hn         1 4T3       0.321700
     38 H13         -6.5560    -1.1430    -1.7160 hc         1 4T3       0.075450
     39 H14         -5.7800    -2.6810    -1.1360 hc         1 4T3       0.075450
     40 H15         -5.9590    -1.8760     1.2450 hc         1 4T3       0.075450
     41 H16         -6.7340    -0.3360     0.6690 hc         1 4T3       0.075450
     42 H17         -0.1670     5.2850    -0.6250 h1         1 4T3       0.055700
     43 H18         -1.0060     1.6820    -1.3690 h1         1 4T3       0.065950
     44 H19         -0.5820     3.2030    -2.1290 h1         1 4T3       0.065950
     45 H20         -1.1600     5.5980     1.4750 hn         1 4T3       0.336300
     46 H21         -0.0500     4.6940     2.2210 hn         1 4T3       0.336300
@<TRIPOS>BOND
     1     1     2 ar  
     2     1    11 1   
     3     1    14 ar  
     4     2     9 1   
     5     2    12 ar  
     6     3    12 ar  
     7     3    13 ar  
     8     3    22 1   
     9     4     5 1   
    10     4    17 2   
    11     4    18 1   
    12     5    20 1   
    13     5    21 1   
    14     5    26 1   
    15     6     7 1   
    16     6    22 1   
    17     6    27 1   
    18     6    28 1   
    19     7    23 1   
    20     7    29 1   
    21     7    30 1   
    22     8    23 1   
    23     8    24 1   
    24     8    31 1   
    25     8    32 1   
    26     9    10 2   
    27     9    33 1   
    28    10    11 1   
    29    10    34 1   
    30    13    14 ar  
    31    14    15 1   
    32    15    16 1   
    33    15    35 1   
    34    16    17 1   
    35    16    19 2   
    36    17    36 1   
    37    18    19 1   
    38    18    37 1   
    39    20    21 1   
    40    20    38 1   
    41    20    39 1   
    42    21    40 1   
    43    21    41 1   
    44    22    24 1   
    45    23    25 1   
    46    23    42 1   
    47    24    43 1   
    48    24    44 1   
    49    25    45 1   
    50    25    46 1   
@<TRIPOS>SUBSTRUCTURE
     1 4T3         1 TEMP              0 ****  ****    0 ROOT
