@<TRIPOS>MOLECULE
4T4
   94    99     1     0     0
SMALL
abcg2


@<TRIPOS>ATOM
      1 C1           8.4980     4.5300     0.8270 c3         1 4T4       0.083300
      2 C2           0.0710     1.8880    -1.5140 ca         1 4T4       0.125000
      3 C3           0.2770     1.3530    -0.2550 ca         1 4T4      -0.107500
      4 C4          -1.4930    -2.7260    -0.2850 ca         1 4T4      -0.110000
      5 C5          -1.2500    -3.3950     0.9030 ca         1 4T4      -0.054000
      6 C6          -0.0050    -3.9380     1.1770 ca         1 4T4      -0.190000
      7 C7           1.0540    -3.8320     0.2550 ca         1 4T4       0.341000
      8 C8           0.7780    -3.1720    -0.9600 ca         1 4T4      -0.190000
      9 C9          -0.4640    -2.6280    -1.2130 ca         1 4T4      -0.054000
     10 C10          3.4290    -4.0290    -0.3100 c3         1 4T4       0.234800
     11 C11          3.9120    -2.5800    -0.2230 c6         1 4T4      -0.096700
     12 C12          5.0750    -2.3570    -1.1840 c6         1 4T4      -0.069400
     13 C13         -2.8520    -0.7660     0.1610 c6         1 4T4       0.227300
     14 C14         -3.6100    -2.5790    -1.3960 c          1 4T4       0.576000
     15 C15         -4.8450    -1.7760    -1.7160 c6         1 4T4      -0.113100
     16 C16         -5.1950    -0.7040    -0.7350 ca         1 4T4      -0.065300
     17 C17         -4.2530    -0.2270     0.1460 ca         1 4T4      -0.089300
     18 C18         -4.5860     0.7870     1.0500 ca         1 4T4      -0.162000
     19 C19         -5.8540     1.3310     1.0720 ca         1 4T4       0.129100
     20 C20         -6.8240     0.8440     0.1640 ca         1 4T4       0.120100
     21 C21         -6.4850    -0.1610    -0.7190 ca         1 4T4      -0.171000
     22 C22         -9.0360     1.0030    -0.6610 c3         1 4T4       0.143900
     23 CL1          1.2690     2.9370    -2.2020 cl         1 4T4      -0.202000
     24 C23         -0.6890     0.5120     0.2810 ca         1 4T4      -0.083000
     25 C24         -1.8470     0.2080    -0.4210 ca         1 4T4      -0.103300
     26 C25         -2.0310     0.7630    -1.6830 ca         1 4T4      -0.083000
     27 C26         -1.0790     1.6030    -2.2370 ca         1 4T4      -0.107500
     28 N1          -2.7350    -2.0640    -0.5040 n          1 4T4      -0.227400
     29 O2          -6.2760     2.3130     1.8890 os         1 4T4      -0.333100
     30 C27         -5.4530     2.7510     2.9740 c3         1 4T4       0.176300
     31 C28         -6.0230     4.0800     3.4280 c3         1 4T4      -0.107100
     32 C29         -5.4400     1.7240     4.0960 c3         1 4T4      -0.107100
     33 O3          -3.4090    -3.6480    -1.9520 o          1 4T4      -0.550000
     34 N2           2.2910    -4.3520     0.5270 nh         1 4T4      -0.827400
     35 C30          5.6080    -0.9290    -1.1300 c6         1 4T4      -0.075900
     36 C31          6.0390    -0.5450     0.2860 c6         1 4T4       0.188500
     37 C32          4.8520    -0.7480     1.2300 c6         1 4T4      -0.075900
     38 C33          4.3210    -2.1760     1.1870 c6         1 4T4      -0.069400
     39 N3           6.5350     0.8310     0.3810 n3         1 4T4      -0.711600
     40 C34          7.2480     1.0730     1.6190 c6         1 4T4       0.144800
     41 C35          7.4300     2.5590     1.8110 c6         1 4T4       0.111000
     42 N4           8.0000     3.1870     0.6350 n          1 4T4      -0.402800
     43 C36          8.0370     2.5930    -0.5670 c          1 4T4       0.570000
     44 C37          7.4080     1.2190    -0.7060 c6         1 4T4       0.078800
     45 O4           8.5620     3.0990    -1.5530 o          1 4T4      -0.574000
     46 C38          2.5280    -4.9870     1.8020 c3         1 4T4       0.217100
     47 H1           9.3680     4.5290     1.4870 h1         1 4T4       0.044033
     48 H2           8.7790     4.9720    -0.1230 h1         1 4T4       0.044033
     49 H3           7.7250     5.1490     1.2850 h1         1 4T4       0.044033
     50 H5          -2.0360    -3.4850     1.6430 ha         1 4T4       0.117000
     51 H6           0.1340    -4.4360     2.1260 ha         1 4T4       0.113500
     52 H7           1.5420    -3.0580    -1.7150 ha         1 4T4       0.113500
     53 H8          -0.6280    -2.0980    -2.1430 ha         1 4T4       0.117000
     54 H9           3.2040    -4.2720    -1.3540 h1         1 4T4       0.049700
     55 H10          4.2430    -4.6970    -0.0250 h1         1 4T4       0.049700
     56 H11          3.0920    -1.9190    -0.5340 hc         1 4T4       0.064700
     57 H12          5.8830    -3.0590    -0.9480 hc         1 4T4       0.040700
     58 H13          4.7650    -2.5830    -2.2080 hc         1 4T4       0.040700
     59 H14         -2.5720    -0.9320     1.2060 h1         1 4T4       0.065700
     60 H15         -4.6870    -1.3430    -2.7120 hc         1 4T4       0.079700
     61 H16         -5.6690    -2.4820    -1.8330 hc         1 4T4       0.079700
     62 H17         -3.8230     1.1410     1.7320 ha         1 4T4       0.123000
     63 H18         -7.2160    -0.5540    -1.4140 ha         1 4T4       0.122000
     64 H19         -9.9160     1.6030    -0.4470 h1         1 4T4       0.041033
     65 H20         -8.7390     1.1680    -1.7000 h1         1 4T4       0.041033
     66 H21         -9.2900    -0.0520    -0.5320 h1         1 4T4       0.041033
     67 H22         -0.5240     0.0800     1.2610 ha         1 4T4       0.119500
     68 H23         -2.9290     0.5510    -2.2520 ha         1 4T4       0.119500
     69 H24         -1.2330     2.0290    -3.2190 ha         1 4T4       0.130000
     70 H25         -4.4320     2.9200     2.6140 h1         1 4T4       0.039700
     71 H26         -7.0500     3.9720     3.7810 hc         1 4T4       0.047033
     72 H27         -5.4250     4.4730     4.2490 hc         1 4T4       0.047033
     73 H28         -6.0070     4.8140     2.6220 hc         1 4T4       0.047033
     74 H29         -6.4470     1.5640     4.4840 hc         1 4T4       0.047033
     75 H30         -5.0400     0.7620     3.7770 hc         1 4T4       0.047033
     76 H31         -4.8160     2.0820     4.9150 hc         1 4T4       0.047033
     77 H32          6.4400    -0.8450    -1.8310 hc         1 4T4       0.049450
     78 H33          4.8300    -0.2360    -1.4720 hc         1 4T4       0.049450
     79 H34          6.8420    -1.2490     0.5810 h1         1 4T4       0.021700
     80 H35          5.1180    -0.5030     2.2600 hc         1 4T4       0.049450
     81 H36          4.0600    -0.0470     0.9430 hc         1 4T4       0.049450
     82 H37          3.4750    -2.2650     1.8730 hc         1 4T4       0.040700
     83 H38          5.0930    -2.8620     1.5560 hc         1 4T4       0.040700
     84 H40          6.6890     0.6930     2.4720 h1         1 4T4       0.042200
     85 H41          8.2260     0.5610     1.6290 h1         1 4T4       0.042200
     86 H42          6.4710     3.0290     2.0500 h1         1 4T4       0.046200
     87 H43          8.0990     2.7370     2.6560 h1         1 4T4       0.046200
     88 H44          8.2430     0.5090    -0.8490 h1         1 4T4       0.065200
     89 H45          6.8600     1.2490    -1.6470 h1         1 4T4       0.065200
     90 H46          1.8470    -5.8260     1.9650 h1         1 4T4       0.034700
     91 H47          3.5410    -5.3790     1.8220 h1         1 4T4       0.034700
     92 H48          2.4220    -4.3010     2.6490 h1         1 4T4       0.034700
     93 O1          -8.0360     1.4220     0.2450 os         1 4T4      -0.318100
     94 H4           1.1740     1.5810     0.3030 ha         1 4T4       0.130000
@<TRIPOS>BOND
     1     1    42 1   
     2     1    47 1   
     3     1    48 1   
     4     1    49 1   
     5     2     3 ar  
     6     2    23 1   
     7     2    27 ar  
     8     3    24 ar  
     9     3    94 1   
    10     4     5 ar  
    11     4     9 ar  
    12     4    28 1   
    13     5     6 ar  
    14     5    50 1   
    15     6     7 ar  
    16     6    51 1   
    17     7     8 ar  
    18     7    34 1   
    19     8     9 ar  
    20     8    52 1   
    21     9    53 1   
    22    10    11 1   
    23    10    34 1   
    24    10    54 1   
    25    10    55 1   
    26    11    12 1   
    27    11    38 1   
    28    11    56 1   
    29    12    35 1   
    30    12    57 1   
    31    12    58 1   
    32    13    17 1   
    33    13    25 1   
    34    13    28 1   
    35    13    59 1   
    36    14    15 1   
    37    14    28 1   
    38    14    33 2   
    39    15    16 1   
    40    15    60 1   
    41    15    61 1   
    42    16    17 ar  
    43    16    21 ar  
    44    17    18 ar  
    45    18    19 ar  
    46    18    62 1   
    47    19    20 ar  
    48    19    29 1   
    49    20    21 ar  
    50    20    93 1   
    51    21    63 1   
    52    22    64 1   
    53    22    65 1   
    54    22    66 1   
    55    22    93 1   
    56    24    25 ar  
    57    24    67 1   
    58    25    26 ar  
    59    26    27 ar  
    60    26    68 1   
    61    27    69 1   
    62    29    30 1   
    63    30    31 1   
    64    30    32 1   
    65    30    70 1   
    66    31    71 1   
    67    31    72 1   
    68    31    73 1   
    69    32    74 1   
    70    32    75 1   
    71    32    76 1   
    72    34    46 1   
    73    35    36 1   
    74    35    77 1   
    75    35    78 1   
    76    36    37 1   
    77    36    39 1   
    78    36    79 1   
    79    37    38 1   
    80    37    80 1   
    81    37    81 1   
    82    38    82 1   
    83    38    83 1   
    84    39    40 1   
    85    39    44 1   
    86    40    41 1   
    87    40    84 1   
    88    40    85 1   
    89    41    42 1   
    90    41    86 1   
    91    41    87 1   
    92    42    43 1   
    93    43    44 1   
    94    43    45 2   
    95    44    88 1   
    96    44    89 1   
    97    46    90 1   
    98    46    91 1   
    99    46    92 1   
@<TRIPOS>SUBSTRUCTURE
     1 4T4         1 TEMP              0 ****  ****    0 ROOT
