@<TRIPOS>MOLECULE
4T4
   94    99     1     0     0
SMALL
No Charge or Current Charge


@<TRIPOS>ATOM
      1 C1           5.9510     5.1140    -0.0470 c3         1 4T4       0.083300
      2 C2           1.1490     2.4160    -1.2580 ca         1 4T4       0.125000
      3 C3           1.4430     1.3910    -0.3480 ca         1 4T4      -0.107500
      4 C4          -0.7940    -2.5700    -0.3270 ca         1 4T4      -0.110000
      5 C5          -0.5390    -2.8940     1.0250 ca         1 4T4      -0.054000
      6 C6           0.4630    -3.8210     1.3570 ca         1 4T4      -0.190000
      7 C7           1.1880    -4.4790     0.3500 ca         1 4T4       0.341000
      8 C8           0.8340    -4.2660    -0.9910 ca         1 4T4      -0.190000
      9 C9          -0.1730    -3.3460    -1.3260 ca         1 4T4      -0.054000
     10 C10          3.6430    -4.9180     0.1170 c3         1 4T4       0.234800
     11 C11          3.9390    -3.3830     0.0610 c6         1 4T4      -0.096700
     12 C12          5.2400    -3.0440    -0.6990 c6         1 4T4      -0.069400
     13 C13         -1.9640    -0.3610     0.0370 c6         1 4T4       0.227300
     14 C14         -2.8870    -2.0220    -1.5980 c          1 4T4       0.576000
     15 C15         -3.6920    -0.8730    -2.2120 c6         1 4T4      -0.113100
     16 C16         -4.2410    -0.0310    -1.0720 ca         1 4T4      -0.065300
     17 C17         -3.3900     0.2300     0.0160 ca         1 4T4      -0.089300
     18 C18         -3.8460     1.0290     1.0800 ca         1 4T4      -0.162000
     19 C19         -5.1560     1.5630     1.0640 ca         1 4T4       0.129100
     20 C20         -6.0050     1.3030    -0.0400 ca         1 4T4       0.120100
     21 C21         -5.5390     0.5020    -1.1080 ca         1 4T4      -0.171000
     22 C22         -8.2110     1.6350    -1.1150 c3         1 4T4       0.143900
     23 Cl1          2.4160     3.5240    -1.7710 cl         1 4T4      -0.202000
     24 C23          0.4330     0.5040     0.0650 ca         1 4T4      -0.083000
     25 C24         -0.8820     0.6320    -0.4320 ca         1 4T4      -0.103300
     26 C25         -1.1680     1.6700    -1.3480 ca         1 4T4      -0.083000
     27 C26         -0.1550     2.5560    -1.7580 ca         1 4T4      -0.107500
     28 N1          -1.8590    -1.6640    -0.6940 n          1 4T4      -0.227400
     29 O2          -5.6390     2.3610     2.0920 os         1 4T4      -0.333100
     30 C27         -4.9810     2.5170     3.3640 c3         1 4T4       0.176300
     31 C28         -5.6540     3.7120     4.0640 c3         1 4T4      -0.107100
     32 C29         -5.1430     1.2060     4.1680 c3         1 4T4      -0.107100
     33 O3          -3.1820    -3.1900    -1.8260 o          1 4T4      -0.550000
     34 N2           2.3080    -5.2800     0.6640 nh         1 4T4      -0.827400
     35 C30          5.3820    -1.5090    -0.8650 c6         1 4T4      -0.075900
     36 C31          5.3430    -0.7190     0.4880 c6         1 4T4       0.188500
     37 C32          4.1190    -1.1910     1.3420 c6         1 4T4      -0.075900
     38 C33          4.0000    -2.7280     1.4620 c6         1 4T4      -0.069400
     39 N3           5.2920     0.7680     0.2450 n3         1 4T4      -0.711600
     40 C34          5.2760     1.5850     1.4960 c6         1 4T4       0.144800
     41 C35          5.0580     3.0970     1.2100 c6         1 4T4       0.111000
     42 N4           5.8890     3.6450     0.1080 n          1 4T4      -0.402800
     43 C36          6.5260     2.8060    -0.8310 c          1 4T4       0.570000
     44 C37          6.4160     1.2640    -0.6300 c6         1 4T4       0.078800
     45 O4           7.1530     3.2730    -1.7770 o          1 4T4      -0.574000
     46 C38          2.2820    -6.1920     1.8270 c3         1 4T4       0.217100
     47 H1           6.9970     5.4460    -0.0210 h1         1 4T4       0.044033
     48 H2           5.5040     5.4030    -1.0060 h1         1 4T4       0.044033
     49 H3           5.4010     5.6090     0.7640 h1         1 4T4       0.044033
     50 H5          -1.0880    -2.4140     1.8300 ha         1 4T4       0.117000
     51 H6           0.7000    -3.9960     2.4020 ha         1 4T4       0.113500
     52 H7           1.3630    -4.7950    -1.7780 ha         1 4T4       0.113500
     53 H8          -0.4180    -3.1880    -2.3740 ha         1 4T4       0.117000
     54 H9           3.7270    -5.3190    -0.9030 h1         1 4T4       0.049700
     55 H10          4.4380    -5.3900     0.7110 h1         1 4T4       0.049700
     56 H11          3.1150    -2.9260    -0.5030 hc         1 4T4       0.064700
     57 H12          6.1110    -3.4480    -0.1630 hc         1 4T4       0.040700
     58 H13          5.2330    -3.5190    -1.6890 hc         1 4T4       0.040700
     59 H14         -1.7560    -0.5550     1.0960 h1         1 4T4       0.065700
     60 H15         -2.9930    -0.2310    -2.7620 hc         1 4T4       0.079700
     61 H16         -4.4710    -1.2580    -2.8820 hc         1 4T4       0.079700
     62 H17         -3.1690     1.2290     1.9040 ha         1 4T4       0.123000
     63 H18         -6.1670     0.2900    -1.9680 ha         1 4T4       0.122000
     64 H19         -9.1550     2.1540    -0.9070 h1         1 4T4       0.041033
     65 H20         -7.8110     2.0250    -2.0600 h1         1 4T4       0.041033
     66 H21         -8.4300     0.5670    -1.2380 h1         1 4T4       0.041033
     67 H22          0.6770    -0.2860     0.7710 ha         1 4T4       0.119500
     68 H23         -2.1710     1.8020    -1.7450 ha         1 4T4       0.119500
     69 H24         -0.3820     3.3530    -2.4620 ha         1 4T4       0.130000
     70 H25         -3.9170     2.7550     3.2370 h1         1 4T4       0.039700
     71 H26         -6.7260     3.5300     4.2060 hc         1 4T4       0.047033
     72 H27         -5.2010     3.8870     5.0460 hc         1 4T4       0.047033
     73 H28         -5.5320     4.6240     3.4670 hc         1 4T4       0.047033
     74 H29         -6.2030     0.9480     4.2800 hc         1 4T4       0.047033
     75 H30         -4.6360     0.3700     3.6750 hc         1 4T4       0.047033
     76 H31         -4.7100     1.3180     5.1690 hc         1 4T4       0.047033
     77 H32          6.3280    -1.3210    -1.3890 hc         1 4T4       0.049450
     78 H33          4.5830    -1.1420    -1.5240 hc         1 4T4       0.049450
     79 H34          6.2580    -0.9690     1.0460 h1         1 4T4       0.021700
     80 H35          4.1820    -0.7910     2.3610 hc         1 4T4       0.049450
     81 H36          3.1930    -0.7980     0.9060 hc         1 4T4       0.049450
     82 H37          3.1020    -2.9720     2.0430 hc         1 4T4       0.040700
     83 H38          4.8530    -3.1270     2.0290 hc         1 4T4       0.040700
     84 H40          4.4720     1.2790     2.1760 h1         1 4T4       0.042200
     85 H41          6.2250     1.4590     2.0400 h1         1 4T4       0.042200
     86 H42          4.0020     3.2510     0.9470 h1         1 4T4       0.046200
     87 H43          5.2490     3.6650     2.1310 h1         1 4T4       0.046200
     88 H44          7.3850     0.9500    -0.2170 h1         1 4T4       0.065200
     89 H45          6.3360     0.8510    -1.6440 h1         1 4T4       0.065200
     90 H46          1.2610    -6.5510     2.0130 h1         1 4T4       0.034700
     91 H47          2.9160    -7.0700     1.6410 h1         1 4T4       0.034700
     92 H48          2.6460    -5.6790     2.7270 h1         1 4T4       0.034700
     93 O1          -7.2800     1.8460    -0.0400 os         1 4T4      -0.318100
     94 H4           2.4550     1.2870     0.0350 ha         1 4T4       0.130000
@<TRIPOS>BOND
     1     1    42 1   
     2     1    47 1   
     3     1    48 1   
     4     1    49 1   
     5     2     3 ar  
     6     2    23 1   
     7     2    27 ar  
     8     3    24 ar  
     9     3    94 1   
    10     4     5 ar  
    11     4     9 ar  
    12     4    28 1   
    13     5     6 ar  
    14     5    50 1   
    15     6     7 ar  
    16     6    51 1   
    17     7     8 ar  
    18     7    34 1   
    19     8     9 ar  
    20     8    52 1   
    21     9    53 1   
    22    10    11 1   
    23    10    34 1   
    24    10    54 1   
    25    10    55 1   
    26    11    12 1   
    27    11    38 1   
    28    11    56 1   
    29    12    35 1   
    30    12    57 1   
    31    12    58 1   
    32    13    17 1   
    33    13    25 1   
    34    13    28 1   
    35    13    59 1   
    36    14    15 1   
    37    14    28 1   
    38    14    33 2   
    39    15    16 1   
    40    15    60 1   
    41    15    61 1   
    42    16    17 ar  
    43    16    21 ar  
    44    17    18 ar  
    45    18    19 ar  
    46    18    62 1   
    47    19    20 ar  
    48    19    29 1   
    49    20    21 ar  
    50    20    93 1   
    51    21    63 1   
    52    22    64 1   
    53    22    65 1   
    54    22    66 1   
    55    22    93 1   
    56    24    25 ar  
    57    24    67 1   
    58    25    26 ar  
    59    26    27 ar  
    60    26    68 1   
    61    27    69 1   
    62    29    30 1   
    63    30    31 1   
    64    30    32 1   
    65    30    70 1   
    66    31    71 1   
    67    31    72 1   
    68    31    73 1   
    69    32    74 1   
    70    32    75 1   
    71    32    76 1   
    72    34    46 1   
    73    35    36 1   
    74    35    77 1   
    75    35    78 1   
    76    36    37 1   
    77    36    39 1   
    78    36    79 1   
    79    37    38 1   
    80    37    80 1   
    81    37    81 1   
    82    38    82 1   
    83    38    83 1   
    84    39    40 1   
    85    39    44 1   
    86    40    41 1   
    87    40    84 1   
    88    40    85 1   
    89    41    42 1   
    90    41    86 1   
    91    41    87 1   
    92    42    43 1   
    93    43    44 1   
    94    43    45 2   
    95    44    88 1   
    96    44    89 1   
    97    46    90 1   
    98    46    91 1   
    99    46    92 1   
@<TRIPOS>SUBSTRUCTURE
     1 4T4         1 TEMP              0 ****  ****    0 ROOT
