@<TRIPOS>MOLECULE
4T5
   49    52     1     0     0
SMALL
No Charge or Current Charge


@<TRIPOS>ATOM
      1 N3           1.2710     1.3090     0.0240 nb         1 4T5      -0.309000
      2 C4           0.1400     2.0250     0.0430 ca         1 4T5       0.419900
      3 C6           1.1760     4.0520    -0.1520 ca         1 4T5       0.176900
      4 C8          -2.4060     1.7840     0.1990 c3         1 4T5       0.241800
      5 C13         -5.9330    -0.8460    -0.4830 c6         1 4T5       0.152500
      6 C15         -5.9020     0.0490     0.7810 c6         1 4T5      -0.090400
      7 C24          3.1870    -1.1160     0.0330 cc         1 4T5      -0.233000
      8 C26          2.2890    -3.9100     0.9770 cx         1 4T5      -0.123400
      9 C1           2.4160     3.3970    -0.1810 ca         1 4T5      -0.348000
     10 C2           2.4120     2.0040    -0.0900 ca         1 4T5       0.430900
     11 N5           0.0260     3.3630    -0.0390 nb         1 4T5      -0.273000
     12 N7          -1.0220     1.2820     0.1610 nu         1 4T5      -0.923100
     13 C9          -3.4400     0.6260     0.3340 c6         1 4T5      -0.082700
     14 C11         -3.4800    -0.2810    -0.9330 c6         1 4T5      -0.068400
     15 C12         -4.5250    -1.4170    -0.7860 c6         1 4T5      -0.090400
     16 C16         -4.8590     1.1860     0.6350 c6         1 4T5      -0.068400
     17 N17         -6.9060    -1.9410    -0.3140 n8         1 4T5      -0.986200
     18 N18          3.6200     1.3200    -0.1160 nu         1 4T5      -0.934900
     19 C19          3.9650    -0.0110    -0.0600 cd         1 4T5       0.246000
     20 N20          5.2750    -0.4920    -0.0950 na         1 4T5      -0.052200
     21 N22          5.3310    -1.8890    -0.0240 nd         1 4T5      -0.519800
     22 C23          4.0560    -2.2230     0.0520 cc         1 4T5       0.300300
     23 C25          3.5200    -3.6030     0.1480 cx         1 4T5      -0.158000
     24 C27          2.2210    -3.9890    -0.5310 cx         1 4T5      -0.123400
     25 H1           1.1000     5.1360    -0.2190 h4         1 4T5       0.019100
     26 H2          -2.5240     2.4600     1.0580 h1         1 4T5       0.054200
     27 H3          -2.6300     2.3590    -0.7100 h1         1 4T5       0.054200
     28 H4          -6.2600    -0.2370    -1.3420 h1         1 4T5       0.060700
     29 H6          -5.6630    -0.5550     1.6670 hc         1 4T5       0.043200
     30 H7           2.1090    -1.1580     0.0840 ha         1 4T5       0.164000
     31 H8           2.2760    -4.8450     1.5330 hc         1 4T5       0.072200
     32 H9           1.7730    -3.0890     1.4690 hc         1 4T5       0.072200
     33 H10          3.3390     3.9610    -0.2730 ha         1 4T5       0.130000
     34 H11         -0.8840     0.2750     0.2220 hn         1 4T5       0.504000
     35 H12         -3.1240     0.0220     1.1960 hc         1 4T5       0.048700
     36 H13         -3.7200     0.3250    -1.8180 hc         1 4T5       0.045200
     37 H14         -2.4920    -0.7230    -1.1190 hc         1 4T5       0.045200
     38 H15         -4.2120    -2.0990     0.0180 hc         1 4T5       0.043200
     39 H16         -4.5490    -2.0120    -1.7100 hc         1 4T5       0.043200
     40 H17         -5.1700     1.8680    -0.1690 hc         1 4T5       0.045200
     41 H18         -4.8400     1.7830     1.5570 hc         1 4T5       0.045200
     42 H19         -6.8560    -2.5550    -1.1350 hn         1 4T5       0.389500
     43 H21         -6.5900    -2.5430     0.4540 hn         1 4T5       0.389500
     44 H22          4.4180     1.9500    -0.1950 hn         1 4T5       0.500000
     45 H23          6.1160     0.0740    -0.1630 hn         1 4T5       0.365000
     46 H24          4.3080    -4.3520     0.1520 hc         1 4T5       0.092700
     47 H25          2.1630    -4.9760    -0.9830 hc         1 4T5       0.072200
     48 H26          1.6590    -3.2210    -1.0570 hc         1 4T5       0.072200
     49 H5          -6.8960     0.4840     0.9570 hc         1 4T5       0.043200
@<TRIPOS>BOND
     1     1     2 ar  
     2     1    10 ar  
     3     2    11 ar  
     4     2    12 1   
     5     3     9 ar  
     6     3    11 ar  
     7     3    25 1   
     8     4    12 1   
     9     4    13 1   
    10     4    26 1   
    11     4    27 1   
    12     5     6 1   
    13     5    15 1   
    14     5    17 1   
    15     5    28 1   
    16     6    16 1   
    17     6    29 1   
    18     6    49 1   
    19     7    19 2   
    20     7    22 1   
    21     7    30 1   
    22     8    23 1   
    23     8    24 1   
    24     8    31 1   
    25     8    32 1   
    26     9    10 ar  
    27     9    33 1   
    28    10    18 1   
    29    12    34 1   
    30    13    14 1   
    31    13    16 1   
    32    13    35 1   
    33    14    15 1   
    34    14    36 1   
    35    14    37 1   
    36    15    38 1   
    37    15    39 1   
    38    16    40 1   
    39    16    41 1   
    40    17    42 1   
    41    17    43 1   
    42    18    19 1   
    43    18    44 1   
    44    19    20 1   
    45    20    21 1   
    46    20    45 1   
    47    21    22 2   
    48    22    23 1   
    49    23    24 1   
    50    23    46 1   
    51    24    47 1   
    52    24    48 1   
@<TRIPOS>SUBSTRUCTURE
     1 4T5         1 TEMP              0 ****  ****    0 ROOT
