@<TRIPOS>MOLECULE
4T5
   49    52     1     0     0
SMALL
abcg2


@<TRIPOS>ATOM
      1 N3           1.2450     1.2680     0.0260 nb         1 4T5      -0.309000
      2 C4           0.0730     1.9190     0.0950 ca         1 4T5       0.419900
      3 C6           1.0030     3.9380    -0.2790 ca         1 4T5       0.176900
      4 C8          -2.3490     1.6740     0.4770 c3         1 4T5       0.241800
      5 C13         -5.8650    -0.6960    -0.6140 c6         1 4T5       0.152500
      6 C15         -5.8560     0.0670     0.7060 c6         1 4T5      -0.090400
      7 C24          2.9970    -1.0880     0.0400 cc         1 4T5      -0.233000
      8 C26          2.5160    -4.0300     1.1610 cx         1 4T5      -0.123400
      9 C1           2.2570     3.3890    -0.3750 ca         1 4T5      -0.348000
     10 C2           2.3210     1.9930    -0.2060 ca         1 4T5       0.430900
     11 N5          -0.1030     3.2330    -0.0440 nb         1 4T5      -0.273000
     12 N7          -1.0110     1.1560     0.3160 nu         1 4T5      -0.923100
     13 C9          -3.3840     0.5570     0.4560 c6         1 4T5      -0.082700
     14 C11         -3.3920    -0.2070    -0.8680 c6         1 4T5      -0.068400
     15 C12         -4.4780    -1.2770    -0.8890 c6         1 4T5      -0.090400
     16 C16         -4.7700     1.1350     0.7370 c6         1 4T5      -0.068400
     17 N17         -6.9370    -1.6840    -0.6080 n8         1 4T5      -0.986200
     18 N18          3.5310     1.3720    -0.2850 nu         1 4T5      -0.934900
     19 C19          3.7870     0.0250    -0.1690 cd         1 4T5       0.246000
     20 N20          5.0540    -0.4210    -0.2680 na         1 4T5      -0.052200
     21 N22          5.1490    -1.7510    -0.1360 nd         1 4T5      -0.519800
     22 C23          3.9120    -2.1640     0.0510 cc         1 4T5       0.300300
     23 C25          3.6220    -3.5960     0.2390 cx         1 4T5      -0.158000
     24 C27          2.3570    -4.1920    -0.3140 cx         1 4T5      -0.123400
     25 H1           0.8720     5.0080    -0.3960 h4         1 4T5       0.019100
     26 H2          -2.4340     2.2390     1.4130 h1         1 4T5       0.054200
     27 H3          -2.5610     2.3800    -0.3310 h1         1 4T5       0.054200
     28 H4          -6.0930     0.0220    -1.4120 h1         1 4T5       0.060700
     29 H6          -5.6930    -0.6440     1.5260 hc         1 4T5       0.043200
     30 H7           1.9300    -1.1140     0.1640 ha         1 4T5       0.164000
     31 H8           2.6820    -4.9150     1.7610 hc         1 4T5       0.072200
     32 H9           1.9430    -3.2570     1.6570 hc         1 4T5       0.072200
     33 H10          3.1340     3.9910    -0.5650 ha         1 4T5       0.130000
     34 H11         -0.8430     0.1820     0.5090 hn         1 4T5       0.504000
     35 H12         -3.1480    -0.1520     1.2620 hc         1 4T5       0.048700
     36 H13         -3.5600     0.5060    -1.6840 hc         1 4T5       0.045200
     37 H14         -2.4180    -0.6640    -1.0580 hc         1 4T5       0.045200
     38 H15         -4.2600    -2.0370    -0.1290 hc         1 4T5       0.043200
     39 H16         -4.4780    -1.7920    -1.8540 hc         1 4T5       0.043200
     40 H17         -4.9940     1.9010    -0.0150 hc         1 4T5       0.045200
     41 H18         -4.7730     1.6430     1.7060 hc         1 4T5       0.045200
     42 H19         -6.9330    -2.1890    -1.4860 hn         1 4T5       0.389500
     43 H21         -6.7350    -2.3810     0.1010 hn         1 4T5       0.389500
     44 H22          4.3260     1.9680    -0.4620 hn         1 4T5       0.500000
     45 H23          5.8860     0.1270    -0.4230 hn         1 4T5       0.365000
     46 H24          4.5030    -4.2270     0.2130 hc         1 4T5       0.092700
     47 H25          2.4140    -5.1900    -0.7310 hc         1 4T5       0.072200
     48 H26          1.6740    -3.5310    -0.8330 hc         1 4T5       0.072200
     49 H5          -6.8360     0.5200     0.8760 hc         1 4T5       0.043200
@<TRIPOS>BOND
     1     1     2 ar  
     2     1    10 ar  
     3     2    11 ar  
     4     2    12 1   
     5     3     9 ar  
     6     3    11 ar  
     7     3    25 1   
     8     4    12 1   
     9     4    13 1   
    10     4    26 1   
    11     4    27 1   
    12     5     6 1   
    13     5    15 1   
    14     5    17 1   
    15     5    28 1   
    16     6    16 1   
    17     6    29 1   
    18     6    49 1   
    19     7    19 2   
    20     7    22 1   
    21     7    30 1   
    22     8    23 1   
    23     8    24 1   
    24     8    31 1   
    25     8    32 1   
    26     9    10 ar  
    27     9    33 1   
    28    10    18 1   
    29    12    34 1   
    30    13    14 1   
    31    13    16 1   
    32    13    35 1   
    33    14    15 1   
    34    14    36 1   
    35    14    37 1   
    36    15    38 1   
    37    15    39 1   
    38    16    40 1   
    39    16    41 1   
    40    17    42 1   
    41    17    43 1   
    42    18    19 1   
    43    18    44 1   
    44    19    20 1   
    45    20    21 1   
    46    20    45 1   
    47    21    22 2   
    48    22    23 1   
    49    23    24 1   
    50    23    46 1   
    51    24    47 1   
    52    24    48 1   
@<TRIPOS>SUBSTRUCTURE
     1 4T5         1 TEMP              0 ****  ****    0 ROOT
