@<TRIPOS>MOLECULE
4T6
   44    48     1     0     0
SMALL
No Charge or Current Charge


@<TRIPOS>ATOM
      1 C4          -4.6450    -0.3990     0.2640 ca         1 4T6      -0.087200
      2 C5          -3.6600     0.5590     0.5470 ca         1 4T6       0.129000
      3 C6          -3.0530     1.2280    -0.5460 ca         1 4T6      -0.089300
      4 C7          -1.9750     2.2840    -0.3320 c3         1 4T6       0.291100
      5 C13          2.8390     2.0440    -0.0540 ca         1 4T6       0.432900
      6 C17          3.3120    -1.1000    -0.0000 cc         1 4T6      -0.213000
      7 C22          3.4440    -3.6390     0.0150 cx         1 4T6      -0.068400
      8 C24          4.2130    -4.7500     0.6920 cx         1 4T6      -0.124400
      9 C1          -3.4560     0.9040    -1.8690 ca         1 4T6      -0.118000
     10 C2          -4.4530    -0.0680    -2.1070 ca         1 4T6      -0.047000
     11 C3          -5.0340    -0.7090    -1.0050 ca         1 4T6       0.081400
     12 N8          -0.6440     1.6590    -0.3410 nu         1 4T6      -0.926100
     13 C9           0.5790     2.2810    -0.1760 ca         1 4T6       0.421900
     14 N10          0.5860     3.6140     0.0040 nb         1 4T6      -0.281000
     15 C11          1.7930     4.1870     0.1590 ca         1 4T6       0.173900
     16 C12          2.9680     3.4220     0.1340 ca         1 4T6      -0.347000
     17 N14          1.6410     1.4660    -0.2150 nb         1 4T6      -0.317000
     18 C16          4.2470    -0.0690    -0.1310 cc         1 4T6       0.508900
     19 C18          4.0090    -2.2670    -0.0750 cd         1 4T6      -0.097300
     20 N19          5.3440    -1.8580    -0.2440 na         1 4T6      -0.004200
     21 N21          5.4820    -0.4640    -0.2730 nd         1 4T6      -0.584800
     22 C23          4.0220    -4.7690    -0.8060 cx         1 4T6      -0.124400
     23 Cl1         -3.2120     0.8890     2.2230 cl         1 4T6      -0.186000
     24 N26         -5.3850    -1.1840     1.0990 na         1 4T6      -0.305600
     25 C27         -6.2190    -1.9630     0.3000 cc         1 4T6       0.423700
     26 N28         -6.0230    -1.6900    -1.0080 nd         1 4T6      -0.572100
     27 H1          -2.0430     3.0340    -1.1340 h1         1 4T6       0.064700
     28 H2          -2.1460     2.8140     0.6150 h1         1 4T6       0.064700
     29 H3           2.2460    -0.9870     0.1430 ha         1 4T6       0.167000
     30 H4           2.3640    -3.6460     0.1520 hc         1 4T6       0.098700
     31 H5           5.2060    -4.5280     1.0760 hc         1 4T6       0.074950
     32 H6           3.6490    -5.4660     1.2850 hc         1 4T6       0.074950
     33 H7          -2.9940     1.4080    -2.7160 ha         1 4T6       0.122000
     34 H8          -4.7620    -0.3170    -3.1190 ha         1 4T6       0.136000
     35 H9          -0.6040     0.6500    -0.4780 hn         1 4T6       0.508000
     36 H10          1.8160     5.2660     0.3040 h4         1 4T6       0.016100
     37 H11          3.9390     3.8930     0.2590 ha         1 4T6       0.131000
     38 H12          4.8420     1.7970    -0.1000 hn         1 4T6       0.513000
     39 H13          6.1500    -2.4750    -0.3360 hn         1 4T6       0.370000
     40 H14          3.3300    -5.4980    -1.2200 hc         1 4T6       0.074950
     41 H15          4.8870    -4.5600    -1.4310 hc         1 4T6       0.074950
     42 H16         -5.3460    -1.2070     2.1100 hn         1 4T6       0.368000
     43 H17         -6.9180    -2.6810     0.7130 h5         1 4T6       0.065800
     44 N15          3.9800     1.2620    -0.0960 nu         1 4T6      -0.890800
@<TRIPOS>BOND
     1     1     2 ar  
     2     1    11 ar  
     3     1    24 1   
     4     2     3 ar  
     5     2    23 1   
     6     3     4 1   
     7     3     9 ar  
     8     4    12 1   
     9     4    27 1   
    10     4    28 1   
    11     5    16 ar  
    12     5    17 ar  
    13     5    44 1   
    14     6    18 1   
    15     6    19 2   
    16     6    29 1   
    17     7     8 1   
    18     7    19 1   
    19     7    22 1   
    20     7    30 1   
    21     8    22 1   
    22     8    31 1   
    23     8    32 1   
    24     9    10 ar  
    25     9    33 1   
    26    10    11 ar  
    27    10    34 1   
    28    11    26 1   
    29    12    13 1   
    30    12    35 1   
    31    13    14 ar  
    32    13    17 ar  
    33    14    15 ar  
    34    15    16 ar  
    35    15    36 1   
    36    16    37 1   
    37    18    21 2   
    38    18    44 1   
    39    19    20 1   
    40    20    21 1   
    41    20    39 1   
    42    22    40 1   
    43    22    41 1   
    44    24    25 1   
    45    24    42 1   
    46    25    26 2   
    47    25    43 1   
    48    38    44 1   
@<TRIPOS>SUBSTRUCTURE
     1 4T6         1 TEMP              0 ****  ****    0 ROOT
