@<TRIPOS>MOLECULE
4T6
   44    48     1     0     0
SMALL
abcg2


@<TRIPOS>ATOM
      1 C4          -4.4010    -0.3300     0.3440 ca         1 4T6      -0.087200
      2 C5          -3.3650     0.5910     0.3820 ca         1 4T6       0.129000
      3 C6          -2.9800     1.2100    -0.7970 ca         1 4T6      -0.089300
      4 C7          -1.8590     2.2110    -0.8220 c3         1 4T6       0.291100
      5 C13          2.7660     2.0210     0.1500 ca         1 4T6       0.432900
      6 C17          3.1030    -1.1150    -0.0060 cc         1 4T6      -0.213000
      7 C22          3.4150    -3.6660    -0.1660 cx         1 4T6      -0.068400
      8 C24          4.1790    -4.7970     0.4670 cx         1 4T6      -0.124400
      9 C1          -3.6480     0.8780    -1.9890 ca         1 4T6      -0.118000
     10 C2          -4.6830    -0.0360    -2.0400 ca         1 4T6      -0.047000
     11 C3          -5.0650    -0.6520    -0.8510 ca         1 4T6       0.081400
     12 N8          -0.5940     1.5490    -0.6140 nu         1 4T6      -0.926100
     13 C9           0.5440     2.1910    -0.2910 ca         1 4T6       0.421900
     14 N10          0.4900     3.5120    -0.1280 nb         1 4T6      -0.281000
     15 C11          1.6460     4.0930     0.1960 ca         1 4T6       0.173900
     16 C12          2.8280     3.4170     0.3500 ca         1 4T6      -0.347000
     17 N14          1.6320     1.4190    -0.1640 nb         1 4T6      -0.317000
     18 C16          4.0510    -0.0870     0.1720 cc         1 4T6       0.508900
     19 C18          3.8540    -2.2730    -0.0160 cd         1 4T6      -0.097300
     20 N19          5.1310    -1.8910     0.1460 na         1 4T6      -0.004200
     21 N21          5.2780    -0.5670     0.2610 nd         1 4T6      -0.584800
     22 C23          4.1890    -4.6400    -1.0160 cx         1 4T6      -0.124400
     23 CL1         -2.6060     0.9420     1.8940 cl         1 4T6      -0.186000
     24 N26         -5.0060    -1.0890     1.3030 na         1 4T6      -0.305600
     25 C27         -5.9700    -1.8100     0.6810 cc         1 4T6       0.423700
     26 N28         -6.0440    -1.5840    -0.6000 nd         1 4T6      -0.572100
     27 H1          -1.8770     2.7480    -1.7760 h1         1 4T6       0.064700
     28 H2          -2.0040     2.9620    -0.0420 h1         1 4T6       0.064700
     29 H3           2.0370    -1.0280    -0.1090 ha         1 4T6       0.167000
     30 H4           2.3370    -3.7680    -0.1870 hc         1 4T6       0.098700
     31 H5           5.0820    -4.5580     1.0150 hc         1 4T6       0.074950
     32 H6           3.6030    -5.6050     0.8990 hc         1 4T6       0.074950
     33 H7          -3.3310     1.3690    -2.9010 ha         1 4T6       0.122000
     34 H8          -5.1790    -0.2660    -2.9730 ha         1 4T6       0.136000
     35 H9          -0.5210     0.5660    -0.8170 hn         1 4T6       0.508000
     36 H10          1.6170     5.1690     0.3360 h4         1 4T6       0.016100
     37 H11          3.7470     3.9230     0.6110 ha         1 4T6       0.131000
     38 H12          4.7420     1.7900     0.4970 hn         1 4T6       0.513000
     39 H13          5.9510    -2.4750     0.1830 hn         1 4T6       0.370000
     40 H14          3.6190    -5.3380    -1.6140 hc         1 4T6       0.074950
     41 H15          5.0980    -4.2870    -1.4890 hc         1 4T6       0.074950
     42 H16         -4.7870    -1.1180     2.2860 hn         1 4T6       0.368000
     43 H17         -6.5970    -2.4950     1.2310 h5         1 4T6       0.065800
     44 N15          3.8950     1.2840     0.2860 nu         1 4T6      -0.890800
@<TRIPOS>BOND
     1     1     2 ar  
     2     1    11 ar  
     3     1    24 1   
     4     2     3 ar  
     5     2    23 1   
     6     3     4 1   
     7     3     9 ar  
     8     4    12 1   
     9     4    27 1   
    10     4    28 1   
    11     5    16 ar  
    12     5    17 ar  
    13     5    44 1   
    14     6    18 1   
    15     6    19 2   
    16     6    29 1   
    17     7     8 1   
    18     7    19 1   
    19     7    22 1   
    20     7    30 1   
    21     8    22 1   
    22     8    31 1   
    23     8    32 1   
    24     9    10 ar  
    25     9    33 1   
    26    10    11 ar  
    27    10    34 1   
    28    11    26 1   
    29    12    13 1   
    30    12    35 1   
    31    13    14 ar  
    32    13    17 ar  
    33    14    15 ar  
    34    15    16 ar  
    35    15    36 1   
    36    16    37 1   
    37    18    21 2   
    38    18    44 1   
    39    19    20 1   
    40    20    21 1   
    41    20    39 1   
    42    22    40 1   
    43    22    41 1   
    44    24    25 1   
    45    24    42 1   
    46    25    26 2   
    47    25    43 1   
    48    38    44 1   
@<TRIPOS>SUBSTRUCTURE
     1 4T6         1 TEMP              0 ****  ****    0 ROOT
