@<TRIPOS>MOLECULE
4T7
   26    27     1     0     0
SMALL
No Charge or Current Charge


@<TRIPOS>ATOM
      1 CAI         -0.1080     0.9210     0.4320 ca         1 4T7      -0.084000
      2 CAM         -1.4680     0.6090     0.2390 ca         1 4T7      -0.036000
      3 CAG         -2.4610     1.5740     0.4930 ca         1 4T7      -0.097000
      4 CAD         -3.8170     1.2590     0.2990 ca         1 4T7      -0.107000
      5 CAC         -4.1850    -0.0210    -0.1490 ca         1 4T7      -0.105000
      6 CAF         -3.1970    -0.9890    -0.4040 ca         1 4T7      -0.099000
      7 CAL         -1.8380    -0.6770    -0.2110 ca         1 4T7      -0.034000
      8 CAH         -0.8450    -1.6410    -0.4630 ca         1 4T7      -0.097000
      9 CAE          0.5110    -1.3250    -0.2690 ca         1 4T7      -0.097000
     10 CAK          0.8910    -0.0420     0.1780 ca         1 4T7      -0.114300
     11 CAN          2.3650     0.3120     0.3850 c3         1 4T7       0.218600
     12 OAB          2.9440    -0.5460     1.3780 oh         1 4T7      -0.636000
     13 CAJ          3.1980     0.2040    -0.9230 c3         1 4T7       0.125600
     14 OAA          4.5820     0.5030    -0.6610 oh         1 4T7      -0.650000
     15 H1           0.1710     1.9130     0.7790 ha         1 4T7       0.114000
     16 H2          -2.1850     2.5670     0.8400 ha         1 4T7       0.114000
     17 H3          -4.5820     2.0070     0.4950 ha         1 4T7       0.113000
     18 H4          -5.2350    -0.2640    -0.2990 ha         1 4T7       0.113000
     19 H5          -3.4900    -1.9780    -0.7500 ha         1 4T7       0.113000
     20 H6          -1.1210    -2.6350    -0.8080 ha         1 4T7       0.114000
     21 H7           1.2670    -2.0830    -0.4630 ha         1 4T7       0.109000
     22 H8           2.4280     1.3570     0.7210 h1         1 4T7       0.086700
     23 H9           3.9130    -0.4690     1.2310 ho         1 4T7       0.440000
     24 H10          3.1020    -0.8070    -1.3390 h1         1 4T7       0.025700
     25 H11          2.7900     0.9070    -1.6610 h1         1 4T7       0.025700
     26 H12          5.0530     0.4730    -1.5250 ho         1 4T7       0.445000
@<TRIPOS>BOND
     1     1     2 ar  
     2     1    10 ar  
     3     1    15 1   
     4     2     3 ar  
     5     2     7 ar  
     6     3     4 ar  
     7     3    16 1   
     8     4     5 ar  
     9     4    17 1   
    10     5     6 ar  
    11     5    18 1   
    12     6     7 ar  
    13     6    19 1   
    14     7     8 ar  
    15     8     9 ar  
    16     8    20 1   
    17     9    10 ar  
    18     9    21 1   
    19    10    11 1   
    20    11    12 1   
    21    11    13 1   
    22    11    22 1   
    23    12    23 1   
    24    13    14 1   
    25    13    24 1   
    26    13    25 1   
    27    14    26 1   
@<TRIPOS>SUBSTRUCTURE
     1 4T7         1 TEMP              0 ****  ****    0 ROOT
