@<TRIPOS>MOLECULE
4T7
   26    27     1     0     0
SMALL
bcc


@<TRIPOS>ATOM
      1 CAI         -0.0110     0.8690     0.4140 ca         1 4T7      -0.102000
      2 CAM         -1.3810     0.5960     0.1950 ca         1 4T7      -0.036000
      3 CAG         -2.3740     1.5960     0.3230 ca         1 4T7      -0.115000
      4 CAD         -3.6920     1.3000     0.1080 ca         1 4T7      -0.125000
      5 CAC         -4.0810    -0.0100    -0.2430 ca         1 4T7      -0.123000
      6 CAF         -3.1420    -0.9970    -0.3740 ca         1 4T7      -0.117000
      7 CAL         -1.7720    -0.7210    -0.1580 ca         1 4T7      -0.034000
      8 CAH         -0.7730    -1.7150    -0.2790 ca         1 4T7      -0.115000
      9 CAE          0.5430    -1.4180    -0.0610 ca         1 4T7      -0.115000
     10 CAK          0.9430    -0.1060     0.2880 ca         1 4T7      -0.114300
     11 CAN          2.4060     0.2240     0.4910 c3         1 4T7       0.195400
     12 OAB          3.0820    -0.7560     1.2440 oh         1 4T7      -0.573800
     13 CAJ          3.0600     0.4780    -0.8600 c3         1 4T7       0.102400
     14 OAA          4.3930     0.8730    -0.6570 oh         1 4T7      -0.587800
     15 H1           0.2810     1.8760     0.6930 ha         1 4T7       0.132000
     16 H2          -2.0740     2.6020     0.5930 ha         1 4T7       0.132000
     17 H3          -4.4450     2.0710     0.2070 ha         1 4T7       0.131000
     18 H4          -5.1270    -0.2310    -0.4090 ha         1 4T7       0.131000
     19 H5          -3.4390    -2.0030    -0.6440 ha         1 4T7       0.131000
     20 H6          -1.0660    -2.7240    -0.5450 ha         1 4T7       0.132000
     21 H7           1.2800    -2.2060    -0.1570 ha         1 4T7       0.127000
     22 H8           2.4660     1.1470     1.0760 h1         1 4T7       0.086700
     23 H9           3.3510    -1.4760     0.6660 ho         1 4T7       0.401000
     24 H10          2.9920    -0.4370    -1.4690 h1         1 4T7       0.025700
     25 H11          2.4760     1.2460    -1.3830 h1         1 4T7       0.025700
     26 H12          4.7870     1.0500    -1.5160 ho         1 4T7       0.406000
@<TRIPOS>BOND
     1     1     2 ar  
     2     1    10 ar  
     3     1    15 1   
     4     2     3 ar  
     5     2     7 ar  
     6     3     4 ar  
     7     3    16 1   
     8     4     5 ar  
     9     4    17 1   
    10     5     6 ar  
    11     5    18 1   
    12     6     7 ar  
    13     6    19 1   
    14     7     8 ar  
    15     8     9 ar  
    16     8    20 1   
    17     9    10 ar  
    18     9    21 1   
    19    10    11 1   
    20    11    12 1   
    21    11    13 1   
    22    11    22 1   
    23    12    23 1   
    24    13    14 1   
    25    13    24 1   
    26    13    25 1   
    27    14    26 1   
@<TRIPOS>SUBSTRUCTURE
     1 4T7         1 TEMP              0 ****  ****    0 ROOT
