@<TRIPOS>MOLECULE
4T8
   93    95     1     0     0
SMALL
abcg2


@<TRIPOS>ATOM
      1 O3         -13.7450     1.8890     0.6620 oh         1 4T8      -0.528600
      2 C4           6.3690     2.4200     1.7320 ca         1 4T8       0.138500
      3 C6           6.0950     2.3610     4.0880 ca         1 4T8       0.464900
      4 C8           7.3170     0.4780     1.3980 cc         1 4T8       0.385700
      5 O1           8.9610     0.2130    -3.0770 oh         1 4T8      -0.705000
      6 C            3.1170    -1.9080     1.1750 c3         1 4T8       0.066300
      7 N            4.8810    -1.4850    -2.4220 n7         1 4T8      -0.906300
      8 C1           3.5220    -1.2450    -0.1330 c3         1 4T8      -0.312400
      9 N1           5.5220     3.5630     3.9650 nb         1 4T8      -0.297000
     10 C2           5.4070     4.1060     2.7570 ca         1 4T8       0.193900
     11 N2           3.6570     0.2250     2.4110 n8         1 4T8      -1.022200
     12 O2           8.1640     2.7320    -2.4030 oh         1 4T8      -0.700000
     13 C3           6.2990    -1.3160    -2.1400 c3         1 4T8       0.217800
     14 N3           5.7960     3.6130     1.5930 nb         1 4T8      -0.227000
     15 C5           6.5640     1.7340     2.9190 ca         1 4T8      -0.107600
     16 N6           6.1920     1.8010     5.2930 nv         1 4T8      -1.056900
     17 N7           7.1550     0.5190     2.6870 nd         1 4T8      -0.540100
     18 N9           6.8680     1.6020     0.7560 na         1 4T8      -0.309300
     19 CA           2.6980    -0.8500     2.2260 c3         1 4T8       0.192500
     20 CB           2.4010    -1.4800     3.5770 c3         1 4T8       0.162600
     21 C11          6.8170     1.8610    -0.6670 c5         1 4T8       0.305300
     22 S1P          1.8580    -3.2040     0.9380 ss         1 4T8      -0.405000
     23 C12          8.1800     1.7940    -1.3630 c5         1 4T8       0.104300
     24 P2A        -12.8980     1.9060    -0.7370 p3         1 4T8       0.199300
     25 C2P          0.4100    -2.2420     0.4090 c3         1 4T8       0.026600
     26 O2P          2.7530    -2.7250    -2.2330 o          1 4T8      -0.533500
     27 C13          8.1870     0.3630    -1.9220 c5         1 4T8       0.090300
     28 C3P         -0.4670    -3.1050    -0.4920 c3         1 4T8       0.108000
     29 O3P          4.7010    -3.4970    -0.8400 o          1 4T8      -0.533500
     30 C10          6.7110     0.1370    -2.2430 c5         1 4T8       0.158300
     31 O4           5.9960     0.9040    -1.2850 os         1 4T8      -0.448000
     32 O4A        -12.7240     3.5260    -0.9250 oh         1 4T8      -0.528600
     33 N4P         -1.6600    -2.3970    -0.8920 ns         1 4T8      -0.502900
     34 C5P         -2.7800    -2.3600    -0.1510 c          1 4T8       0.600100
     35 O5P         -2.9290    -3.0220     0.8670 o          1 4T8      -0.595100
     36 O6A        -11.4410     1.5990    -0.0440 os         1 4T8      -0.331100
     37 C6P         -3.8530    -1.4170    -0.6510 c3         1 4T8      -0.182400
     38 C7P         -5.2410    -2.0310    -0.5520 c3         1 4T8       0.116000
     39 C9P         -7.5270    -1.3390    -1.0540 c          1 4T8       0.575100
     40 O9P         -7.9610    -2.4760    -0.9200 o          1 4T8      -0.603100
     41 CAP         -8.4350    -0.1610    -1.4370 c3         1 4T8       0.090300
     42 OAP         -7.6840     1.0120    -1.6630 oh         1 4T8      -0.668000
     43 CBP         -9.6040     0.0610    -0.4390 c3         1 4T8      -0.074000
     44 CCP        -10.3350     1.3380    -0.8940 c3         1 4T8       0.195600
     45 CDP        -10.5930    -1.1050    -0.4880 c3         1 4T8      -0.087100
     46 CEP         -9.0770     0.2380     0.9880 c3         1 4T8      -0.087100
     47 OG           3.5700    -2.1140     4.0470 oh         1 4T8      -0.666000
     48 H1         -14.4600     1.2440     0.6250 ho         1 4T8       0.464000
     49 H3           9.8740     0.0460    -2.8220 ho         1 4T8       0.521000
     50 H4           3.9760    -2.4610     1.5600 h1         1 4T8       0.118700
     51 H5           4.6440    -1.6160    -3.3980 hn         1 4T8       0.498000
     52 H6           2.7470    -0.5960    -0.5470 h1         1 4T8       0.105200
     53 H7           4.4080    -0.6260     0.0130 h1         1 4T8       0.105200
     54 H8           4.9310     5.0800     2.7270 h5         1 4T8       0.049100
     55 H9           4.5670    -0.1300     2.6750 hn         1 4T8       0.416000
     56 H10          3.7620     0.7870     1.5790 hn         1 4T8       0.416000
     57 H12          8.7110     2.3860    -3.1200 ho         1 4T8       0.528000
     58 H13          6.5210    -1.6880    -1.1380 h1         1 4T8       0.061200
     59 H14          6.9020    -1.9090    -2.8310 h1         1 4T8       0.061200
     60 H15          6.6560     0.9190     5.4220 hn         1 4T8       0.509000
     61 H16          5.8850     2.3010     6.1100 hn         1 4T8       0.509000
     62 H17          1.7640    -0.3880     1.8900 h1         1 4T8       0.055700
     63 H18          2.0780    -0.6760     4.2490 h1         1 4T8       0.038700
     64 H19          1.5690    -2.1860     3.4840 h1         1 4T8       0.038700
     65 H20          6.3880     2.8600    -0.7690 h2         1 4T8       0.137700
     66 H21          9.0030     1.9750    -0.6610 h1         1 4T8       0.074700
     67 H22         -0.1550    -1.9080     1.2800 h1         1 4T8       0.063200
     68 H23          0.7330    -1.3590    -0.1420 h1         1 4T8       0.063200
     69 H24          8.5120    -0.3320    -1.1370 h1         1 4T8       0.049700
     70 H25          0.0890    -3.3780    -1.3880 h1         1 4T8       0.080200
     71 H26         -0.7520    -4.0280     0.0130 h1         1 4T8       0.080200
     72 H27          6.4960     0.5120    -3.2510 h1         1 4T8       0.088700
     73 H28        -13.1750     3.8330    -1.7200 ho         1 4T8       0.464000
     74 H29         -1.5930    -1.7940    -1.6960 hn         1 4T8       0.312500
     75 H30         -3.8050    -0.5200    -0.0240 hc         1 4T8       0.059200
     76 H31         -3.6550    -1.0970    -1.6760 hc         1 4T8       0.059200
     77 H32         -5.3170    -2.8880    -1.2260 h1         1 4T8       0.068700
     78 H33         -5.4170    -2.3990     0.4600 h1         1 4T8       0.068700
     79 H35         -8.8720    -0.4240    -2.4080 h1         1 4T8       0.092700
     80 H36         -7.5320     1.4680    -0.8280 ho         1 4T8       0.451000
     81 H37        -10.6570     1.2120    -1.9380 h1         1 4T8       0.034700
     82 H38         -9.6770     2.2070    -0.8660 h1         1 4T8       0.034700
     83 H39        -10.1620    -2.0210    -0.0960 hc         1 4T8       0.045533
     84 H40        -11.4740    -0.8730     0.1100 hc         1 4T8       0.045533
     85 H41        -10.9220    -1.3030    -1.5100 hc         1 4T8       0.045533
     86 H42         -8.3620     1.0610     1.0810 hc         1 4T8       0.045533
     87 H43         -9.8940     0.4550     1.6770 hc         1 4T8       0.045533
     88 H44         -8.5880    -0.6680     1.3480 hc         1 4T8       0.045533
     89 H45          3.3950    -2.4580     4.9270 ho         1 4T8       0.446000
     90 N8P         -6.2340    -1.0380    -0.9000 ns         1 4T8      -0.507900
     91 S            3.9330    -2.4110    -1.4390 s6         1 4T8       1.198100
     92 H2           7.7580    -0.3510     0.8660 h5         1 4T8       0.059800
     93 H34         -5.9320    -0.1020    -1.1120 hn         1 4T8       0.322500
@<TRIPOS>BOND
     1     1    24 1   
     2     1    48 1   
     3     2    14 ar  
     4     2    15 ar  
     5     2    18 1   
     6     3     9 ar  
     7     3    15 ar  
     8     3    16 1   
     9     4    17 2   
    10     4    18 1   
    11     4    92 1   
    12     5    27 1   
    13     5    49 1   
    14     6     8 1   
    15     6    19 1   
    16     6    22 1   
    17     6    50 1   
    18     7    13 1   
    19     7    51 1   
    20     7    91 1   
    21     8    52 1   
    22     8    53 1   
    23     8    91 1   
    24     9    10 ar  
    25    10    14 ar  
    26    10    54 1   
    27    11    19 1   
    28    11    55 1   
    29    11    56 1   
    30    12    23 1   
    31    12    57 1   
    32    13    30 1   
    33    13    58 1   
    34    13    59 1   
    35    15    17 1   
    36    16    60 1   
    37    16    61 1   
    38    18    21 1   
    39    19    20 1   
    40    19    62 1   
    41    20    47 1   
    42    20    63 1   
    43    20    64 1   
    44    21    23 1   
    45    21    31 1   
    46    21    65 1   
    47    22    25 1   
    48    23    27 1   
    49    23    66 1   
    50    24    32 1   
    51    24    36 1   
    52    25    28 1   
    53    25    67 1   
    54    25    68 1   
    55    26    91 2   
    56    27    30 1   
    57    27    69 1   
    58    28    33 1   
    59    28    70 1   
    60    28    71 1   
    61    29    91 2   
    62    30    31 1   
    63    30    72 1   
    64    32    73 1   
    65    33    34 1   
    66    33    74 1   
    67    34    35 2   
    68    34    37 1   
    69    36    44 1   
    70    37    38 1   
    71    37    75 1   
    72    37    76 1   
    73    38    77 1   
    74    38    78 1   
    75    38    90 1   
    76    39    40 2   
    77    39    41 1   
    78    39    90 1   
    79    41    42 1   
    80    41    43 1   
    81    41    79 1   
    82    42    80 1   
    83    43    44 1   
    84    43    45 1   
    85    43    46 1   
    86    44    81 1   
    87    44    82 1   
    88    45    83 1   
    89    45    84 1   
    90    45    85 1   
    91    46    86 1   
    92    46    87 1   
    93    46    88 1   
    94    47    89 1   
    95    90    93 1   
@<TRIPOS>SUBSTRUCTURE
     1 4T8         1 TEMP              0 ****  ****    0 ROOT
