@<TRIPOS>MOLECULE
4T8
   93    95     1     0     0
SMALL
No Charge or Current Charge


@<TRIPOS>ATOM
      1 O3         -12.9700     3.1180     0.3040 oh         1 4T8      -0.528600
      2 C4           3.9760     2.0760     0.1030 ca         1 4T8       0.138500
      3 C6           2.4700     1.3250     1.7950 ca         1 4T8       0.464900
      4 C8           5.9060     1.9500     1.2080 cc         1 4T8       0.385700
      5 O1           9.3600     1.6960    -2.1880 oh         1 4T8      -0.705000
      6 C            3.6470    -2.9410     1.4020 c3         1 4T8       0.066300
      7 N            5.2960    -1.0750    -1.8860 n7         1 4T8      -0.906300
      8 C1           4.0040    -1.8240     0.3760 c3         1 4T8      -0.312400
      9 N1           1.4280     1.4960     0.9670 nb         1 4T8      -0.297000
     10 C2           1.7220     1.9600    -0.2710 ca         1 4T8       0.193900
     11 N2           4.1030    -1.3830     3.3670 n8         1 4T8      -1.022200
     12 O2           8.0280     3.8770    -2.2030 oh         1 4T8      -0.700000
     13 C3           6.5260    -0.4620    -1.3300 c3         1 4T8       0.217800
     14 N3           2.9520     2.2640    -0.7520 nb         1 4T8      -0.227000
     15 C5           3.7880     1.6110     1.3790 ca         1 4T8      -0.107600
     16 N6           2.1760     0.8380     3.0270 nv         1 4T8      -1.056900
     17 N7           4.9890     1.5110     2.0870 nd         1 4T8      -0.540100
     18 N9           5.3220     2.2770    -0.0220 na         1 4T8      -0.309300
     19 CA           3.1840    -2.4110     2.8050 c3         1 4T8       0.192500
     20 CB           2.9820    -3.5570     3.8480 c3         1 4T8       0.162600
     21 C11          6.0180     2.7540    -1.2260 c5         1 4T8       0.305300
     22 S1P          2.3570    -4.0910     0.6990 ss         1 4T8      -0.405000
     23 C12          7.5590     3.0240    -1.1520 c5         1 4T8       0.104300
     24 P2A        -11.6190     3.5030    -0.5900 p3         1 4T8       0.199300
     25 C2P          0.9690    -2.9300     0.2890 c3         1 4T8       0.026600
     26 O2P          3.5830    -2.8540    -2.0570 o          1 4T8      -0.533500
     27 C13          8.1590     1.5940    -1.3900 c5         1 4T8       0.090300
     28 C3P         -0.2750    -3.7160    -0.1670 c3         1 4T8       0.108000
     29 O3P          5.8160    -3.3280    -0.9320 o          1 4T8      -0.533500
     30 C10          6.9950     0.8080    -2.1090 c5         1 4T8       0.158300
     31 O4           5.9170     1.7680    -2.2730 os         1 4T8      -0.448000
     32 O4A        -11.1470     4.9800     0.0170 oh         1 4T8      -0.528600
     33 N4P         -1.3920    -2.8340    -0.5280 ns         1 4T8      -0.502900
     34 C5P         -2.1640    -2.1400     0.3750 c          1 4T8       0.600100
     35 O5P         -1.9810    -2.2080     1.5810 o          1 4T8      -0.595100
     36 O6A        -10.4570     2.4520    -0.0310 os         1 4T8      -0.331100
     37 C6P         -3.2430    -1.2520    -0.2400 c3         1 4T8      -0.182400
     38 C7P         -4.6380    -1.8550    -0.0060 c3         1 4T8       0.116000
     39 C9P         -7.0320    -1.2910    -0.5360 c          1 4T8       0.575100
     40 O9P         -7.4380    -2.3550    -0.0860 o          1 4T8      -0.603100
     41 CAP         -7.9780    -0.2200    -1.1920 c3         1 4T8       0.090300
     42 OAP         -7.2920     0.5820    -2.1950 oh         1 4T8      -0.668000
     43 CBP         -8.7260     0.7110    -0.1620 c3         1 4T8      -0.074000
     44 CCP         -9.7440     1.6050    -0.9470 c3         1 4T8       0.195600
     45 CDP         -9.5110    -0.1580     0.8680 c3         1 4T8      -0.087100
     46 CEP         -7.7130     1.6050     0.6180 c3         1 4T8      -0.087100
     47 OG           4.2440    -4.1570     4.2120 oh         1 4T8      -0.666000
     48 H1         -13.6990     2.9190    -0.3220 ho         1 4T8       0.464000
     49 H3           9.8830     0.8660    -2.0580 ho         1 4T8       0.521000
     50 H4           4.5530    -3.5420     1.5740 h1         1 4T8       0.118700
     51 H5           5.4830    -1.4210    -2.8250 hn         1 4T8       0.498000
     52 H6           3.1420    -1.2020     0.1210 h1         1 4T8       0.105200
     53 H7           4.7880    -1.1840     0.7840 h1         1 4T8       0.105200
     54 H8           0.8840     2.1030    -0.9510 h5         1 4T8       0.049100
     55 H9           4.8690    -1.8910     3.8300 hn         1 4T8       0.416000
     56 H10          4.5700    -0.8790     2.6040 hn         1 4T8       0.416000
     57 H12          8.7510     3.3110    -2.5910 ho         1 4T8       0.528000
     58 H13          6.3750    -0.1890    -0.2800 h1         1 4T8       0.061200
     59 H14          7.3540    -1.1850    -1.3450 h1         1 4T8       0.061200
     60 H15          2.9010     0.2270     3.4170 hn         1 4T8       0.509000
     61 H16          1.2290     0.5060     3.1700 hn         1 4T8       0.509000
     62 H17          2.2140    -1.9200     2.6570 h1         1 4T8       0.055700
     63 H18          2.5010    -3.1320     4.7400 h1         1 4T8       0.038700
     64 H19          2.2970    -4.3150     3.4470 h1         1 4T8       0.038700
     65 H20          5.4910     3.6720    -1.5190 h2         1 4T8       0.137700
     66 H21          7.8530     3.4320    -0.1750 h1         1 4T8       0.074700
     67 H22          0.7160    -2.3290     1.1700 h1         1 4T8       0.063200
     68 H23          1.2820    -2.2540    -0.5160 h1         1 4T8       0.063200
     69 H24          8.3920     1.1270    -0.4220 h1         1 4T8       0.049700
     70 H25         -0.0140    -4.3320    -1.0380 h1         1 4T8       0.080200
     71 H26         -0.5950    -4.3910     0.6390 h1         1 4T8       0.080200
     72 H27          7.3060     0.4840    -3.1120 h1         1 4T8       0.088700
     73 H28        -11.0660     5.6040    -0.7370 ho         1 4T8       0.464000
     74 H29         -1.6130    -2.7110    -1.5090 hn         1 4T8       0.312500
     75 H30         -3.2050    -0.2680     0.2410 hc         1 4T8       0.059200
     76 H31         -3.0820    -1.1480    -1.3200 hc         1 4T8       0.059200
     77 H32         -4.6990    -2.8450    -0.4800 h1         1 4T8       0.068700
     78 H33         -4.8140    -1.9800     1.0720 h1         1 4T8       0.068700
     79 H35         -8.7440    -0.8240    -1.6980 h1         1 4T8       0.092700
     80 H36         -6.9960     1.4150    -1.7660 ho         1 4T8       0.451000
     81 H37        -10.4480     0.9630    -1.4930 h1         1 4T8       0.034700
     82 H38         -9.2160     2.2240    -1.6840 h1         1 4T8       0.034700
     83 H39         -8.8340    -0.7490     1.4960 hc         1 4T8       0.045533
     84 H40        -10.1070     0.4640     1.5460 hc         1 4T8       0.045533
     85 H41        -10.1950    -0.8480     0.3590 hc         1 4T8       0.045533
     86 H42         -7.1870     2.3000    -0.0470 hc         1 4T8       0.045533
     87 H43         -8.2260     2.2060     1.3790 hc         1 4T8       0.045533
     88 H44         -6.9630     0.9970     1.1380 hc         1 4T8       0.045533
     89 H45          4.0490    -4.8480     4.8840 ho         1 4T8       0.446000
     90 N8P         -5.6840    -0.9960    -0.5580 ns         1 4T8      -0.507900
     91 S            4.6770    -2.4430    -1.1780 s6         1 4T8       1.198100
     92 H2           6.9710     2.0270     1.3930 h5         1 4T8       0.059800
     93 H34         -5.4180    -0.1340    -1.0200 hn         1 4T8       0.322500
@<TRIPOS>BOND
     1     1    24 1   
     2     1    48 1   
     3     2    14 ar  
     4     2    15 ar  
     5     2    18 1   
     6     3     9 ar  
     7     3    15 ar  
     8     3    16 1   
     9     4    17 2   
    10     4    18 1   
    11     4    92 1   
    12     5    27 1   
    13     5    49 1   
    14     6     8 1   
    15     6    19 1   
    16     6    22 1   
    17     6    50 1   
    18     7    13 1   
    19     7    51 1   
    20     7    91 1   
    21     8    52 1   
    22     8    53 1   
    23     8    91 1   
    24     9    10 ar  
    25    10    14 ar  
    26    10    54 1   
    27    11    19 1   
    28    11    55 1   
    29    11    56 1   
    30    12    23 1   
    31    12    57 1   
    32    13    30 1   
    33    13    58 1   
    34    13    59 1   
    35    15    17 1   
    36    16    60 1   
    37    16    61 1   
    38    18    21 1   
    39    19    20 1   
    40    19    62 1   
    41    20    47 1   
    42    20    63 1   
    43    20    64 1   
    44    21    23 1   
    45    21    31 1   
    46    21    65 1   
    47    22    25 1   
    48    23    27 1   
    49    23    66 1   
    50    24    32 1   
    51    24    36 1   
    52    25    28 1   
    53    25    67 1   
    54    25    68 1   
    55    26    91 2   
    56    27    30 1   
    57    27    69 1   
    58    28    33 1   
    59    28    70 1   
    60    28    71 1   
    61    29    91 2   
    62    30    31 1   
    63    30    72 1   
    64    32    73 1   
    65    33    34 1   
    66    33    74 1   
    67    34    35 2   
    68    34    37 1   
    69    36    44 1   
    70    37    38 1   
    71    37    75 1   
    72    37    76 1   
    73    38    77 1   
    74    38    78 1   
    75    38    90 1   
    76    39    40 2   
    77    39    41 1   
    78    39    90 1   
    79    41    42 1   
    80    41    43 1   
    81    41    79 1   
    82    42    80 1   
    83    43    44 1   
    84    43    45 1   
    85    43    46 1   
    86    44    81 1   
    87    44    82 1   
    88    45    83 1   
    89    45    84 1   
    90    45    85 1   
    91    46    86 1   
    92    46    87 1   
    93    46    88 1   
    94    47    89 1   
    95    90    93 1   
@<TRIPOS>SUBSTRUCTURE
     1 4T8         1 TEMP              0 ****  ****    0 ROOT
