@<TRIPOS>MOLECULE
4T9
   42    45     1     0     0
SMALL
No Charge or Current Charge


@<TRIPOS>ATOM
      1 C3          -6.9730    -2.5320    -0.4030 c3         1 4T9       0.146900
      2 O1          -6.5970    -1.1700    -0.1350 os         1 4T9      -0.323100
      3 C2          -5.2790    -0.7410    -0.1660 ca         1 4T9       0.074100
      4 C4          -4.2170    -1.6200    -0.4730 ca         1 4T9      -0.139000
      5 C5          -2.8940    -1.1440    -0.4940 ca         1 4T9      -0.140000
      6 C6          -2.6100     0.2020    -0.2020 ca         1 4T9       0.327000
      7 C17         -3.6640     1.0820     0.0830 ca         1 4T9      -0.242000
      8 C1          -4.9990     0.6190     0.1100 ca         1 4T9       0.144100
      9 O           -6.0570     1.4650     0.4000 os         1 4T9      -0.321100
     10 C           -5.8740     2.8610     0.6950 c3         1 4T9       0.146900
     11 N           -1.3170     0.7240    -0.2340 nu         1 4T9      -0.942900
     12 C7          -0.0550     0.2070    -0.0500 ca         1 4T9       0.636900
     13 C16          1.0700     0.9800    -0.3870 ca         1 4T9      -0.271000
     14 C10          2.3190     0.4110    -0.1430 ca         1 4T9       0.028800
     15 N2           3.5930     0.9080    -0.3670 na         1 4T9      -0.226700
     16 C11          4.5340    -0.0490     0.0520 cc         1 4T9       0.035700
     17 C15          3.8060    -1.1260     0.5310 cd         1 4T9      -0.207200
     18 C9           2.3950    -0.8330     0.4080 ca         1 4T9      -0.195800
     19 C8           1.2340    -1.5490     0.7340 ca         1 4T9       0.434900
     20 N1           0.0060    -1.0180     0.5060 nb         1 4T9      -0.748000
     21 C12          5.9580     0.0860    -0.0140 cc         1 4T9      -0.160800
     22 C14          6.8620    -0.8460     0.3950 cd         1 4T9      -0.146000
     23 N4           8.1080    -0.2570     0.1290 na         1 4T9       0.002800
     24 N3           7.9900     1.0190    -0.4350 nd         1 4T9      -0.513800
     25 C13          6.6830     1.1840    -0.5020 cc         1 4T9       0.243900
     26 H31C        -6.6750    -2.8270    -1.4170 h1         1 4T9       0.036367
     27 H32C        -6.5030    -3.2150     0.3170 h1         1 4T9       0.036367
     28 H33C        -8.0610    -2.6490    -0.3210 h1         1 4T9       0.036367
     29 H4          -4.3950    -2.6670    -0.7020 ha         1 4T9       0.118000
     30 H5          -2.0920    -1.8270    -0.7530 ha         1 4T9       0.151000
     31 H17         -3.4310     2.1210     0.2920 ha         1 4T9       0.111000
     32 H           -1.2900     1.7310    -0.3550 hn         1 4T9       0.488000
     33 HC1         -6.8420     3.3360     0.8950 h1         1 4T9       0.038033
     34 HC2         -5.2410     2.9920     1.5820 h1         1 4T9       0.038033
     35 HC3         -5.4080     3.3810    -0.1520 h1         1 4T9       0.038033
     36 H16          0.9710     1.9700    -0.8200 ha         1 4T9       0.120000
     37 H2           3.8070     1.8130    -0.7680 hn         1 4T9       0.350000
     38 H15          4.2350    -2.0400     0.9340 ha         1 4T9       0.203000
     39 H8           1.2790    -2.5430     1.1790 h4         1 4T9       0.019100
     40 H14          6.7420    -1.8320     0.8310 h4         1 4T9       0.161000
     41 H13          6.2910     2.1060    -0.9080 h4         1 4T9       0.034100
     42 HA           9.0200    -0.6760     0.3100 hn         1 4T9       0.376000
@<TRIPOS>BOND
     1     1     2 1   
     2     1    26 1   
     3     1    27 1   
     4     1    28 1   
     5     2     3 1   
     6     3     4 ar  
     7     3     8 ar  
     8     4     5 ar  
     9     4    29 1   
    10     5     6 ar  
    11     5    30 1   
    12     6     7 ar  
    13     6    11 1   
    14     7     8 ar  
    15     7    31 1   
    16     8     9 1   
    17     9    10 1   
    18    10    33 1   
    19    10    34 1   
    20    10    35 1   
    21    11    12 1   
    22    11    32 1   
    23    12    13 ar  
    24    12    20 ar  
    25    13    14 ar  
    26    13    36 1   
    27    14    15 1   
    28    14    18 ar  
    29    15    16 1   
    30    15    37 1   
    31    16    17 2   
    32    16    21 1   
    33    17    18 1   
    34    17    38 1   
    35    18    19 ar  
    36    19    20 ar  
    37    19    39 1   
    38    21    22 2   
    39    21    25 1   
    40    22    23 1   
    41    22    40 1   
    42    23    24 1   
    43    23    42 1   
    44    24    25 2   
    45    25    41 1   
@<TRIPOS>SUBSTRUCTURE
     1 4T9         1 TEMP              0 ****  ****    0 ROOT
