@<TRIPOS>MOLECULE
4T9
   42    45     1     0     0
SMALL
abcg2


@<TRIPOS>ATOM
      1 C3          -6.9300    -2.4000    -0.0910 c3         1 4T9       0.146900
      2 O1          -6.5870    -1.0330    -0.0560 os         1 4T9      -0.323100
      3 C2          -5.2720    -0.7170    -0.0440 ca         1 4T9       0.074100
      4 C4          -4.2270    -1.6180    -0.0680 ca         1 4T9      -0.139000
      5 C5          -2.8920    -1.2050    -0.0550 ca         1 4T9      -0.140000
      6 C6          -2.5870     0.1490    -0.0160 ca         1 4T9       0.327000
      7 C17         -3.6500     1.0720     0.0110 ca         1 4T9      -0.242000
      8 C1          -4.9680     0.6590    -0.0030 ca         1 4T9       0.144100
      9 O           -6.0280     1.4880     0.0200 os         1 4T9      -0.321100
     10 C           -5.7920     2.8800     0.0590 c3         1 4T9       0.146900
     11 N           -1.3120     0.6990    -0.0040 nu         1 4T9      -0.942900
     12 C7          -0.0620     0.1220    -0.0010 ca         1 4T9       0.636900
     13 C16          1.0480     0.9730     0.0220 ca         1 4T9      -0.271000
     14 C10          2.2880     0.3580     0.0240 ca         1 4T9       0.028800
     15 N2           3.5430     0.8730     0.0430 na         1 4T9      -0.226700
     16 C11          4.4700    -0.1530     0.0350 cc         1 4T9       0.035700
     17 C15          3.8090    -1.3490     0.0110 cd         1 4T9      -0.207200
     18 C9           2.4120    -1.0510     0.0040 ca         1 4T9      -0.195800
     19 C8           1.2330    -1.7810    -0.0180 ca         1 4T9       0.434900
     20 N1           0.0370    -1.2120    -0.0210 nb         1 4T9      -0.748000
     21 C12          5.8880     0.1240     0.0510 cc         1 4T9      -0.160800
     22 C14          6.9230    -0.7930     0.0260 cd         1 4T9      -0.146000
     23 N4           8.0570    -0.0840     0.0550 na         1 4T9       0.002800
     24 N3           7.8590     1.2270     0.0960 nd         1 4T9      -0.513800
     25 C13          6.5480     1.3720     0.0950 cc         1 4T9       0.243900
     26 H31C        -6.5560    -2.8960    -0.9920 h1         1 4T9       0.036367
     27 H32C        -6.5560    -2.9400     0.7830 h1         1 4T9       0.036367
     28 H33C        -8.0170    -2.4500    -0.0930 h1         1 4T9       0.036367
     29 H4          -4.4190    -2.6830    -0.0970 ha         1 4T9       0.118000
     30 H5          -2.1120    -1.9450    -0.0730 ha         1 4T9       0.151000
     31 H17         -3.4180     2.1300     0.0420 ha         1 4T9       0.111000
     32 H           -1.2980     1.7060     0.0130 hn         1 4T9       0.488000
     33 HC1         -6.7680     3.3590     0.0630 h1         1 4T9       0.038033
     34 HC2         -5.2500     3.1790     0.9610 h1         1 4T9       0.038033
     35 HC3         -5.2340     3.2250    -0.8160 h1         1 4T9       0.038033
     36 H16          0.9370     2.0500     0.0380 ha         1 4T9       0.120000
     37 H2           3.7610     1.8550     0.0500 hn         1 4T9       0.350000
     38 H15          4.2640    -2.3270     0.0020 ha         1 4T9       0.203000
     39 H8           1.2500    -2.8660    -0.0360 h4         1 4T9       0.019100
     40 H14          6.9240    -1.8700    -0.0080 h4         1 4T9       0.161000
     41 H13          6.1170     2.3620     0.1250 h4         1 4T9       0.034100
     42 HA           8.9960    -0.4500     0.0480 hn         1 4T9       0.376000
@<TRIPOS>BOND
     1     1     2 1   
     2     1    26 1   
     3     1    27 1   
     4     1    28 1   
     5     2     3 1   
     6     3     4 ar  
     7     3     8 ar  
     8     4     5 ar  
     9     4    29 1   
    10     5     6 ar  
    11     5    30 1   
    12     6     7 ar  
    13     6    11 1   
    14     7     8 ar  
    15     7    31 1   
    16     8     9 1   
    17     9    10 1   
    18    10    33 1   
    19    10    34 1   
    20    10    35 1   
    21    11    12 1   
    22    11    32 1   
    23    12    13 ar  
    24    12    20 ar  
    25    13    14 ar  
    26    13    36 1   
    27    14    15 1   
    28    14    18 ar  
    29    15    16 1   
    30    15    37 1   
    31    16    17 2   
    32    16    21 1   
    33    17    18 1   
    34    17    38 1   
    35    18    19 ar  
    36    19    20 ar  
    37    19    39 1   
    38    21    22 2   
    39    21    25 1   
    40    22    23 1   
    41    22    40 1   
    42    23    24 1   
    43    23    42 1   
    44    24    25 2   
    45    25    41 1   
@<TRIPOS>SUBSTRUCTURE
     1 4T9         1 TEMP              0 ****  ****    0 ROOT
