@<TRIPOS>MOLECULE
4TB
   20    20     1     0     0
SMALL
No Charge or Current Charge


@<TRIPOS>ATOM
      1 S1          -1.1710    -0.1880    -2.2640 ss         1 4TB       0.182000
      2 C2           0.3710    -0.4810    -1.4600 cc         1 4TB      -0.152300
      3 C3           1.4160    -0.0610    -2.2430 cd         1 4TB      -0.168000
      4 C4           1.0100     0.5000    -3.4830 cd         1 4TB      -0.131000
      5 C5          -0.3500     0.5120    -3.6580 cc         1 4TB      -0.269000
      6 C6           0.4370    -1.1210    -0.0990 c3         1 4TB      -0.024100
      7 C7           0.1060    -0.1340     1.0420 c3         1 4TB      -0.051400
      8 C8           0.1770    -0.7770     2.4480 c3         1 4TB      -0.207400
      9 C9          -0.1650     0.2670     3.5260 c          1 4TB       0.718000
     10 O1          -1.3360     0.4080     3.8420 o          1 4TB      -0.740500
     11 O2           0.7450     0.9430     3.9830 o          1 4TB      -0.740500
     12 H3           2.4560    -0.1480    -1.9430 ha         1 4TB       0.127000
     13 H4           1.7080     0.8840    -4.2220 ha         1 4TB       0.117000
     14 H5          -0.9310     0.8750    -4.4960 h4         1 4TB       0.135000
     15 H61          1.4390    -1.5370     0.0640 hc         1 4TB       0.041200
     16 H62         -0.2610    -1.9660    -0.0590 hc         1 4TB       0.041200
     17 H71         -0.8990     0.2760     0.8820 hc         1 4TB       0.045700
     18 H72          0.8040     0.7120     0.9940 hc         1 4TB       0.045700
     19 H81          1.2090    -1.1280     2.5670 hc         1 4TB       0.015700
     20 H82         -0.5660    -1.5850     2.4470 hc         1 4TB       0.015700
@<TRIPOS>BOND
     1     1     2 1   
     2     1     5 1   
     3     2     3 2   
     4     2     6 1   
     5     3     4 1   
     6     3    12 1   
     7     4     5 2   
     8     4    13 1   
     9     5    14 1   
    10     6     7 1   
    11     6    15 1   
    12     6    16 1   
    13     7     8 1   
    14     7    17 1   
    15     7    18 1   
    16     8     9 1   
    17     8    19 1   
    18     8    20 1   
    19     9    10 1   
    20     9    11 1   
@<TRIPOS>SUBSTRUCTURE
     1 4TB         1 TEMP              0 ****  ****    0 ROOT
