@<TRIPOS>MOLECULE
4TB
   20    20     1     0     0
SMALL
abcg2


@<TRIPOS>ATOM
      1 S1          -1.0310     0.2140    -2.1910 ss         1 4TB       0.182000
      2 C2           0.3950    -0.4370    -1.4650 cc         1 4TB      -0.152300
      3 C3           1.4640    -0.2700    -2.2950 cd         1 4TB      -0.168000
      4 C4           1.1370     0.3810    -3.5180 cd         1 4TB      -0.131000
      5 C5          -0.1820     0.7010    -3.6020 cc         1 4TB      -0.269000
      6 C6           0.3600    -1.0510    -0.1040 c3         1 4TB      -0.024100
      7 C7           0.0440    -0.0570     1.0150 c3         1 4TB      -0.051400
      8 C8           0.0630    -0.7210     2.3810 c3         1 4TB      -0.207400
      9 C9          -0.2150     0.2030     3.5810 c          1 4TB       0.718000
     10 O1          -0.2590    -0.3550     4.6980 o          1 4TB      -0.740500
     11 O2          -0.3670     1.4190     3.3580 o          1 4TB      -0.740500
     12 H3           2.4610    -0.6040    -2.0370 ha         1 4TB       0.127000
     13 H4           1.8530     0.5980    -4.2980 ha         1 4TB       0.117000
     14 H5          -0.7000     1.1920    -4.4110 h4         1 4TB       0.135000
     15 H61          1.3350    -1.5090     0.0790 hc         1 4TB       0.041200
     16 H62         -0.3690    -1.8680    -0.0830 hc         1 4TB       0.041200
     17 H71         -0.9340     0.3980     0.8340 hc         1 4TB       0.045700
     18 H72          0.7690     0.7600     0.9830 hc         1 4TB       0.045700
     19 H81          1.0360    -1.2000     2.5420 hc         1 4TB       0.015700
     20 H82         -0.6620    -1.5420     2.4030 hc         1 4TB       0.015700
@<TRIPOS>BOND
     1     1     2 1   
     2     1     5 1   
     3     2     3 2   
     4     2     6 1   
     5     3     4 1   
     6     3    12 1   
     7     4     5 2   
     8     4    13 1   
     9     5    14 1   
    10     6     7 1   
    11     6    15 1   
    12     6    16 1   
    13     7     8 1   
    14     7    17 1   
    15     7    18 1   
    16     8     9 1   
    17     8    19 1   
    18     8    20 1   
    19     9    10 1   
    20     9    11 1   
@<TRIPOS>SUBSTRUCTURE
     1 4TB         1 TEMP              0 ****  ****    0 ROOT
