@<TRIPOS>MOLECULE
4TC
   76    80     1     0     0
SMALL
abcg2


@<TRIPOS>ATOM
      1 O1G          1.7330    -4.1140    -3.9770 o          1 4TC      -0.878500
      2 PG           0.6480    -3.1990    -3.4900 p5         1 4TC       1.524400
      3 O3G         -0.0260    -2.2760    -4.4730 o          1 4TC      -0.878500
      4 O3P          1.1630    -2.2640    -2.2170 os         1 4TC      -0.733800
      5 P            2.3200    -1.1100    -2.2210 p5         1 4TC       1.479800
      6 O5U          2.8210    -1.2600    -0.6620 os         1 4TC      -0.608400
      7 C5U          3.2290    -2.5200    -0.1760 c3         1 4TC       0.197600
      8 C4U          3.2410    -2.4790     1.3440 c5         1 4TC       0.132300
      9 O4U          2.0380    -1.8920     1.8530 os         1 4TC      -0.448000
     10 C1U          1.2940    -2.8540     2.5480 c5         1 4TC       0.281700
     11 N1V         -0.1220    -2.6550     2.2730 n          1 4TC      -0.271000
     12 C2V         -1.0050    -2.5630     3.3280 c          1 4TC       0.633000
     13 O2V         -0.6690    -2.5620     4.4930 o          1 4TC      -0.616000
     14 N3V         -2.3220    -2.4530     2.9610 ns         1 4TC      -0.473500
     15 C4V         -2.8510    -2.4130     1.6820 c          1 4TC       0.596200
     16 O4V         -4.0580    -2.3290     1.5170 o          1 4TC      -0.646000
     17 C5V         -1.8550    -2.4880     0.6500 cc         1 4TC      -0.421200
     18 C6V         -0.5610    -2.6270     0.9820 cd         1 4TC       0.093600
     19 C2U          1.8230    -4.2080     2.0700 c5         1 4TC       0.152300
     20 O2U          1.5180    -5.2600     2.9210 oh         1 4TC      -0.769000
     21 C3U          3.3050    -3.8900     1.9420 c5         1 4TC       0.114300
     22 O3U          3.8780    -3.9080     3.2280 oh         1 4TC      -0.718000
     23 O2P          1.6900     0.2460    -2.2890 o          1 4TC      -0.869500
     24 O1P          3.4230    -1.4860    -3.1590 o          1 4TC      -0.869500
     25 C3B         -0.6170    -4.1670    -2.5870 c3         1 4TC      -0.807400
     26 PB           0.0320    -5.6300    -1.7040 p5         1 4TC       1.530400
     27 O1B          1.2790    -5.3210    -0.9230 o          1 4TC      -0.869500
     28 O2B          0.0040    -6.8160    -2.6270 o          1 4TC      -0.869500
     29 O3A         -1.2210    -5.8010    -0.6010 os         1 4TC      -0.733800
     30 PA          -1.1580    -6.6520     0.7790 p5         1 4TC       1.486800
     31 O2A         -0.3880    -7.9200     0.6250 o          1 4TC      -0.856500
     32 O1A         -0.8720    -5.7260     1.9430 o          1 4TC      -0.856500
     33 O5          -2.7370    -7.0910     0.8720 os         1 4TC      -0.586400
     34 C5          -3.7340    -6.1080     1.0170 c3         1 4TC       0.223600
     35 C4          -4.9040    -6.7040     1.7750 c5         1 4TC       0.123300
     36 C3          -5.9870    -5.6660     2.0620 c5         1 4TC       0.088300
     37 O3          -7.2450    -6.2470     2.3020 oh         1 4TC      -0.752000
     38 C2          -5.5050    -5.1050     3.3970 c5         1 4TC       0.129300
     39 O2          -6.4390    -4.3990     4.1450 oh         1 4TC      -0.692000
     40 C1          -4.9690    -6.3740     4.0800 c5         1 4TC       0.281300
     41 O4          -4.4830    -7.1890     3.0560 os         1 4TC      -0.428000
     42 N9          -3.9120    -6.1100     5.0280 na         1 4TC      -0.287300
     43 C8          -2.5920    -5.8420     4.7640 cc         1 4TC       0.474700
     44 N7          -1.8970    -5.6100     5.8390 nd         1 4TC      -0.545100
     45 C7          -2.7970    -5.7210     6.8650 ca         1 4TC      -0.069600
     46 C6          -2.6790    -5.5860     8.2600 ca         1 4TC       0.430900
     47 N6          -1.5290    -5.2660     8.8570 nv         1 4TC      -1.077900
     48 N1          -3.7740    -5.7750     9.0050 nb         1 4TC      -0.343000
     49 C10         -4.9210    -6.0800     8.4020 ca         1 4TC       0.131900
     50 N3          -5.1580    -6.2250     7.1100 nb         1 4TC      -0.215000
     51 C9          -4.0590    -6.0340     6.3820 ca         1 4TC       0.094500
     52 H3B1        -1.1560    -3.5030    -1.9120 hc         1 4TC       0.049700
     53 H3B2        -1.3500    -4.5120    -3.3210 hc         1 4TC       0.049700
     54 H5U1         2.5630    -3.3120    -0.5320 h1         1 4TC       0.056700
     55 H5U2         4.2430    -2.7690    -0.5140 h1         1 4TC       0.056700
     56 H4U          4.0810    -1.8660     1.6870 h1         1 4TC       0.017700
     57 H3U          3.8190    -4.5850     1.2650 h1         1 4TC       0.076700
     58 H1U          1.4140    -2.7520     3.6280 h2         1 4TC       0.074700
     59 H2U          1.4430    -4.4080     1.0610 h1         1 4TC       0.146700
     60 H6V          0.2040    -2.7030     0.2210 h4         1 4TC       0.286000
     61 H3V         -2.9740    -2.3700     3.7300 hn         1 4TC       0.296500
     62 H5V         -2.1630    -2.4610    -0.3830 ha         1 4TC       0.241000
     63 HA           0.6130    -5.5460     2.6410 ho         1 4TC       0.592000
     64 HB           4.8030    -3.6540     3.1500 ho         1 4TC       0.456000
     65 H5'1        -3.3560    -5.2260     1.5430 h1         1 4TC       0.037200
     66 H5'2        -4.0880    -5.7680     0.0370 h1         1 4TC       0.037200
     67 H4          -5.3050    -7.5510     1.2100 h1         1 4TC       0.067700
     68 H3          -6.0350    -4.8950     1.2840 h1         1 4TC       0.088700
     69 HC          -7.6310    -6.5230     1.4650 ho         1 4TC       0.500000
     70 H2          -4.6730    -4.4210     3.2090 h1         1 4TC       0.130700
     71 HD          -7.2560    -4.9100     4.1780 ho         1 4TC       0.497000
     72 H1          -5.7650    -6.8710     4.6460 h2         1 4TC       0.067700
     73 H8          -2.1870    -5.8520     3.7600 h5         1 4TC       0.159800
     74 H6N1        -0.6770    -5.1900     8.3290 hn         1 4TC       0.495500
     75 H6N2        -1.4670    -5.2580     9.8610 hn         1 4TC       0.495500
     76 H7          -5.7680    -6.2270     9.0630 h5         1 4TC       0.009100
@<TRIPOS>BOND
     1     1     2 1   
     2     2     3 1   
     3     2     4 1   
     4     2    25 1   
     5     4     5 1   
     6     5     6 1   
     7     5    23 1   
     8     5    24 1   
     9     6     7 1   
    10     7     8 1   
    11     7    54 1   
    12     7    55 1   
    13     8     9 1   
    14     8    21 1   
    15     8    56 1   
    16     9    10 1   
    17    10    11 1   
    18    10    19 1   
    19    10    58 1   
    20    11    12 1   
    21    11    18 1   
    22    12    13 2   
    23    12    14 1   
    24    14    15 1   
    25    14    61 1   
    26    15    16 2   
    27    15    17 1   
    28    17    18 2   
    29    17    62 1   
    30    18    60 1   
    31    19    20 1   
    32    19    21 1   
    33    19    59 1   
    34    20    63 1   
    35    21    22 1   
    36    21    57 1   
    37    22    64 1   
    38    25    26 1   
    39    25    52 1   
    40    25    53 1   
    41    26    27 1   
    42    26    28 1   
    43    26    29 1   
    44    29    30 1   
    45    30    31 1   
    46    30    32 1   
    47    30    33 1   
    48    33    34 1   
    49    34    35 1   
    50    34    65 1   
    51    34    66 1   
    52    35    36 1   
    53    35    41 1   
    54    35    67 1   
    55    36    37 1   
    56    36    38 1   
    57    36    68 1   
    58    37    69 1   
    59    38    39 1   
    60    38    40 1   
    61    38    70 1   
    62    39    71 1   
    63    40    41 1   
    64    40    42 1   
    65    40    72 1   
    66    42    43 1   
    67    42    51 1   
    68    43    44 2   
    69    43    73 1   
    70    44    45 1   
    71    45    46 ar  
    72    45    51 ar  
    73    46    47 1   
    74    46    48 ar  
    75    47    74 1   
    76    47    75 1   
    77    48    49 ar  
    78    49    50 ar  
    79    49    76 1   
    80    50    51 ar  
@<TRIPOS>SUBSTRUCTURE
     1 4TC         1 TEMP              0 ****  ****    0 ROOT
