@<TRIPOS>MOLECULE
4TC
   76    80     1     0     0
SMALL
No Charge or Current Charge


@<TRIPOS>ATOM
      1 O1G          2.3810    -5.9320    -2.6940 o          1 4TC      -0.878500
      2 PG           1.3790    -4.8470    -2.9110 p5         1 4TC       1.524400
      3 O3G          1.2770    -4.4430    -4.3460 o          1 4TC      -0.878500
      4 O3P          1.4460    -3.6130    -1.9370 os         1 4TC      -0.733800
      5 P            2.6580    -2.6710    -2.2830 p5         1 4TC       1.479800
      6 O5U          2.6970    -1.9240    -0.8580 os         1 4TC      -0.608400
      7 C5U          3.2070    -2.6340     0.2840 c3         1 4TC       0.197600
      8 C4U          2.6970    -1.9790     1.6130 c5         1 4TC       0.132300
      9 O4U          1.4630    -1.2240     1.4010 os         1 4TC      -0.448000
     10 C1U          0.4150    -1.8380     2.1810 c5         1 4TC       0.281700
     11 N1V         -0.8800    -1.8390     1.4570 n          1 4TC      -0.271000
     12 C2V         -2.0490    -1.5430     2.1810 c          1 4TC       0.633000
     13 O2V         -2.0530    -1.2450     3.3640 o          1 4TC      -0.616000
     14 N3V         -3.2180    -1.6030     1.4880 ns         1 4TC      -0.473500
     15 C4V         -3.3980    -1.9140     0.1820 c          1 4TC       0.596200
     16 O4V         -4.5030    -1.9550    -0.3260 o          1 4TC      -0.646000
     17 C5V         -2.1610    -2.1890    -0.5290 cc         1 4TC      -0.421200
     18 C6V         -0.9360    -2.1410     0.0970 cd         1 4TC       0.093600
     19 C2U          0.8760    -3.3160     2.3610 c5         1 4TC       0.152300
     20 O2U          0.1290    -4.0870     3.3290 oh         1 4TC      -0.769000
     21 C3U          2.3680    -3.0230     2.7460 c5         1 4TC       0.114300
     22 O3U          2.5280    -2.4550     4.0670 oh         1 4TC      -0.718000
     23 O2P          2.3200    -1.6720    -3.3400 o          1 4TC      -0.869500
     24 O1P          3.9670    -3.3450    -2.5260 o          1 4TC      -0.869500
     25 C3B         -0.2610    -5.3650    -2.5230 c3         1 4TC      -0.807400
     26 PB          -0.0360    -6.2790    -1.0230 p5         1 4TC       1.530400
     27 O1B          0.9980    -5.7430    -0.0940 o          1 4TC      -0.869500
     28 O2B          0.1230    -7.7110    -1.4180 o          1 4TC      -0.869500
     29 O3A         -1.5020    -5.9840    -0.5360 os         1 4TC      -0.733800
     30 PA          -1.7550    -6.4390     0.9480 p5         1 4TC       1.486800
     31 O2A         -1.0810    -7.7060     1.3540 o          1 4TC      -0.856500
     32 O1A         -1.5220    -5.3290     1.9220 o          1 4TC      -0.856500
     33 O5          -3.3270    -6.7280     0.7510 os         1 4TC      -0.586400
     34 C5          -4.2660    -5.6450     0.8070 c3         1 4TC       0.223600
     35 C4          -5.0890    -5.6960     2.1360 c5         1 4TC       0.123300
     36 C3          -5.5350    -4.2820     2.6630 c5         1 4TC       0.088300
     37 O3          -6.8450    -4.2880     3.2740 oh         1 4TC      -0.752000
     38 C2          -4.4450    -4.0360     3.7410 c5         1 4TC       0.129300
     39 O2          -4.8740    -3.0090     4.6430 oh         1 4TC      -0.692000
     40 C1          -4.4080    -5.4610     4.3700 c5         1 4TC       0.281300
     41 O4          -4.3370    -6.3190     3.2190 os         1 4TC      -0.428000
     42 N9          -3.3300    -5.7850     5.3050 na         1 4TC      -0.287300
     43 C8          -2.1970    -5.0010     5.5690 cc         1 4TC       0.474700
     44 N7          -1.4440    -5.5460     6.5490 nd         1 4TC      -0.545100
     45 C7          -2.1420    -6.7090     6.8860 ca         1 4TC      -0.069600
     46 C6          -1.8360    -7.6930     7.8510 ca         1 4TC       0.430900
     47 N6          -0.7310    -7.6390     8.6420 nv         1 4TC      -1.077900
     48 N1          -2.6330    -8.7570     8.0340 nb         1 4TC      -0.343000
     49 C10         -3.7360    -8.8170     7.2480 ca         1 4TC       0.131900
     50 N3          -4.1090    -7.9190     6.3040 nb         1 4TC      -0.215000
     51 C9          -3.2830    -6.8660     6.1400 ca         1 4TC       0.094500
     52 H3B1        -0.9040    -4.4950    -2.3810 hc         1 4TC       0.049700
     53 H3B2        -0.6610    -6.0090    -3.3070 hc         1 4TC       0.049700
     54 H5U1         2.8910    -3.6860     0.2580 h1         1 4TC       0.056700
     55 H5U2         4.3050    -2.6270     0.2880 h1         1 4TC       0.056700
     56 H4U          3.4700    -1.2730     1.9460 h1         1 4TC       0.017700
     57 H3U          2.9820    -3.9300     2.6440 h1         1 4TC       0.076700
     58 H1U          0.3040    -1.3260     3.1450 h2         1 4TC       0.074700
     59 H2U          0.8500    -3.8210     1.3860 h1         1 4TC       0.146700
     60 H6V          0.0270    -2.3230    -0.3800 h4         1 4TC       0.286000
     61 H3V         -4.0490    -1.3790     2.0100 hn         1 4TC       0.296500
     62 H5V         -2.2630    -2.4350    -1.5790 ha         1 4TC       0.241000
     63 HA          -0.5560    -4.6130     2.7750 ho         1 4TC       0.592000
     64 HB           3.4930    -2.3750     4.2360 ho         1 4TC       0.456000
     65 H5'1        -3.7500    -4.6780     0.7400 h1         1 4TC       0.037200
     66 H5'2        -4.9600    -5.6960    -0.0420 h1         1 4TC       0.037200
     67 H4          -5.9700    -6.3220     1.9420 h1         1 4TC       0.067700
     68 H3          -5.4850    -3.5240     1.8670 h1         1 4TC       0.088700
     69 HC          -7.5110    -4.4270     2.5590 ho         1 4TC       0.500000
     70 H2          -3.4770    -3.7960     3.2760 h1         1 4TC       0.130700
     71 HD          -5.8610    -3.0700     4.5920 ho         1 4TC       0.497000
     72 H1          -5.3440    -5.6560     4.9100 h2         1 4TC       0.067700
     73 H8          -1.9910    -4.0690     5.0520 h5         1 4TC       0.159800
     74 H6N1        -0.0080    -6.9760     8.3740 hn         1 4TC       0.495500
     75 H6N2        -0.4220    -8.4960     9.0930 hn         1 4TC       0.495500
     76 H7          -4.3910    -9.6740     7.3910 h5         1 4TC       0.009100
@<TRIPOS>BOND
     1     1     2 1   
     2     2     3 1   
     3     2     4 1   
     4     2    25 1   
     5     4     5 1   
     6     5     6 1   
     7     5    23 1   
     8     5    24 1   
     9     6     7 1   
    10     7     8 1   
    11     7    54 1   
    12     7    55 1   
    13     8     9 1   
    14     8    21 1   
    15     8    56 1   
    16     9    10 1   
    17    10    11 1   
    18    10    19 1   
    19    10    58 1   
    20    11    12 1   
    21    11    18 1   
    22    12    13 2   
    23    12    14 1   
    24    14    15 1   
    25    14    61 1   
    26    15    16 2   
    27    15    17 1   
    28    17    18 2   
    29    17    62 1   
    30    18    60 1   
    31    19    20 1   
    32    19    21 1   
    33    19    59 1   
    34    20    63 1   
    35    21    22 1   
    36    21    57 1   
    37    22    64 1   
    38    25    26 1   
    39    25    52 1   
    40    25    53 1   
    41    26    27 1   
    42    26    28 1   
    43    26    29 1   
    44    29    30 1   
    45    30    31 1   
    46    30    32 1   
    47    30    33 1   
    48    33    34 1   
    49    34    35 1   
    50    34    65 1   
    51    34    66 1   
    52    35    36 1   
    53    35    41 1   
    54    35    67 1   
    55    36    37 1   
    56    36    38 1   
    57    36    68 1   
    58    37    69 1   
    59    38    39 1   
    60    38    40 1   
    61    38    70 1   
    62    39    71 1   
    63    40    41 1   
    64    40    42 1   
    65    40    72 1   
    66    42    43 1   
    67    42    51 1   
    68    43    44 2   
    69    43    73 1   
    70    44    45 1   
    71    45    46 ar  
    72    45    51 ar  
    73    46    47 1   
    74    46    48 ar  
    75    47    74 1   
    76    47    75 1   
    77    48    49 ar  
    78    49    50 ar  
    79    49    76 1   
    80    50    51 ar  
@<TRIPOS>SUBSTRUCTURE
     1 4TC         1 TEMP              0 ****  ****    0 ROOT
