@<TRIPOS>MOLECULE
4TD
   61    60     1     0     0
SMALL
No Charge or Current Charge


@<TRIPOS>ATOM
      1 C1          -0.0510    -0.0520    -0.0470 c3         1 4TD      -0.036000
      2 C2           0.2490     1.1970    -0.9260 c3         1 4TD       0.168350
      3 C4           0.9130     3.5260    -0.7820 c3         1 4TD       0.162100
      4 C5           1.3240     4.6370     0.2330 c3         1 4TD       0.172800
      5 C6           2.5250     4.2360     1.1170 c3         1 4TD      -0.125850
      6 C8          -0.3850    -1.2480    -0.9860 c3         1 4TD       0.168350
      7 C10         -1.0390    -3.5840    -0.9560 c3         1 4TD       0.162100
      8 C11         -1.3750    -4.7660     0.0050 c3         1 4TD       0.172800
      9 C12         -2.5100    -4.4370     0.9980 c3         1 4TD      -0.125850
     10 C14          1.1850    -0.3960     0.8340 c3         1 4TD       0.168350
     11 C16          3.5280    -0.9960     0.7040 c3         1 4TD       0.162100
     12 C17          4.6540    -1.2370    -0.3380 c3         1 4TD       0.172800
     13 C18          6.0580    -1.2850     0.2920 c3         1 4TD      -0.125850
     14 C20         -1.2580     0.2400     0.8930 c3         1 4TD       0.168350
     15 C22         -3.6000     0.8710     0.8670 c3         1 4TD       0.162100
     16 C23         -4.7750     1.2430    -0.0890 c3         1 4TD       0.172800
     17 C24         -4.4470     2.4310    -1.0200 c3         1 4TD      -0.125850
     18 O25         -5.1710     0.1150    -0.8910 oh         1 4TD      -0.710250
     19 O21         -2.4180     0.5610     0.1010 os         1 4TD      -0.447750
     20 O15          2.3260    -0.6450    -0.0110 os         1 4TD      -0.447750
     21 O19          4.6120    -0.2010    -1.3260 oh         1 4TD      -0.710250
     22 O9          -0.6780    -2.4140    -0.1930 os         1 4TD      -0.447750
     23 O13         -0.2120    -5.1830     0.7440 oh         1 4TD      -0.710250
     24 O3           0.5990     2.3070    -0.0780 os         1 4TD      -0.447750
     25 O7           0.2200     5.0030     1.0810 oh         1 4TD      -0.710250
     26 H1           1.0730     0.9720    -1.6170 h1         1 4TD       0.034825
     27 H2          -0.6310     1.4440    -1.5360 h1         1 4TD       0.034825
     28 H3           0.0480     3.8690    -1.3650 h1         1 4TD       0.027200
     29 H4           1.7440     3.3590    -1.4790 h1         1 4TD       0.027200
     30 H5           1.6300     5.5110    -0.3590 h1         1 4TD       0.039950
     31 H6           2.8380     5.0730     1.7520 hc         1 4TD       0.043617
     32 H7           2.2740     3.3870     1.7640 hc         1 4TD       0.043617
     33 H8           3.3790     3.9490     0.4920 hc         1 4TD       0.043617
     34 H9          -1.2450    -0.9910    -1.6190 h1         1 4TD       0.034825
     35 H10          0.4660    -1.4440    -1.6520 h1         1 4TD       0.034825
     36 H11         -0.2180    -3.8800    -1.6220 h1         1 4TD       0.027200
     37 H12         -1.9180    -3.3740    -1.5790 h1         1 4TD       0.027200
     38 H13         -1.7200    -5.5980    -0.6240 h1         1 4TD       0.039950
     39 H14         -2.2160    -3.6330     1.6840 hc         1 4TD       0.043617
     40 H15         -3.4070    -4.1120     0.4570 hc         1 4TD       0.043617
     41 H16         -2.7760    -5.3190     1.5930 hc         1 4TD       0.043617
     42 H17          1.3950     0.4360     1.5190 h1         1 4TD       0.034825
     43 H18          0.9660    -1.2790     1.4490 h1         1 4TD       0.034825
     44 H19          3.3800    -1.9050     1.3010 h1         1 4TD       0.027200
     45 H20          3.8210    -0.1820     1.3820 h1         1 4TD       0.027200
     46 H21          4.4600    -2.2070    -0.8160 h1         1 4TD       0.039950
     47 H22          6.1150    -2.0830     1.0420 hc         1 4TD       0.043617
     48 H23          6.8180    -1.4830    -0.4740 hc         1 4TD       0.043617
     49 H24          6.3010    -0.3340     0.7820 hc         1 4TD       0.043617
     50 H25         -1.4580    -0.6370     1.5230 h1         1 4TD       0.034825
     51 H26         -1.0100     1.0750     1.5620 h1         1 4TD       0.034825
     52 H27         -3.4070     1.7200     1.5370 h1         1 4TD       0.027200
     53 H28         -3.8940     0.0140     1.4880 h1         1 4TD       0.027200
     54 H29         -5.6180     1.5470     0.5460 h1         1 4TD       0.039950
     55 H30         -3.6330     2.1800    -1.7100 hc         1 4TD       0.043617
     56 H31         -5.3250     2.7170    -1.6110 hc         1 4TD       0.043617
     57 H32         -4.1390     3.3030    -0.4300 hc         1 4TD       0.043617
     58 H33         -5.8990     0.4220    -1.4770 ho         1 4TD       0.495750
     59 H34          3.6600     0.0590    -1.3510 ho         1 4TD       0.495750
     60 H35         -0.4970    -5.9150     1.3360 ho         1 4TD       0.495750
     61 H36          0.5520     5.6900     1.7020 ho         1 4TD       0.495750
@<TRIPOS>BOND
     1     1     2 1   
     2     1     6 1   
     3     1    10 1   
     4     1    14 1   
     5     2    24 1   
     6     2    26 1   
     7     2    27 1   
     8     3     4 1   
     9     3    24 1   
    10     3    28 1   
    11     3    29 1   
    12     4     5 1   
    13     4    25 1   
    14     4    30 1   
    15     5    31 1   
    16     5    32 1   
    17     5    33 1   
    18     6    22 1   
    19     6    34 1   
    20     6    35 1   
    21     7     8 1   
    22     7    22 1   
    23     7    36 1   
    24     7    37 1   
    25     8     9 1   
    26     8    23 1   
    27     8    38 1   
    28     9    39 1   
    29     9    40 1   
    30     9    41 1   
    31    10    20 1   
    32    10    42 1   
    33    10    43 1   
    34    11    12 1   
    35    11    20 1   
    36    11    44 1   
    37    11    45 1   
    38    12    13 1   
    39    12    21 1   
    40    12    46 1   
    41    13    47 1   
    42    13    48 1   
    43    13    49 1   
    44    14    19 1   
    45    14    50 1   
    46    14    51 1   
    47    15    16 1   
    48    15    19 1   
    49    15    52 1   
    50    15    53 1   
    51    16    17 1   
    52    16    18 1   
    53    16    54 1   
    54    17    55 1   
    55    17    56 1   
    56    17    57 1   
    57    18    58 1   
    58    21    59 1   
    59    23    60 1   
    60    25    61 1   
@<TRIPOS>SUBSTRUCTURE
     1 4TD         1 TEMP              0 ****  ****    0 ROOT
