@<TRIPOS>MOLECULE
4TD
   61    60     1     0     0
SMALL
abcg2


@<TRIPOS>ATOM
      1 C1          -0.0790    -0.1720    -0.0320 c3         1 4TD      -0.036000
      2 C2           0.1360     1.0460    -0.9320 c3         1 4TD       0.168350
      3 C4           0.3740     3.3680    -0.9030 c3         1 4TD       0.162100
      4 C5           0.5000     4.5750     0.0030 c3         1 4TD       0.172800
      5 C6           1.7010     4.4850     0.9350 c3         1 4TD      -0.125850
      6 C8          -0.4030    -1.3510    -0.9500 c3         1 4TD       0.168350
      7 C10         -0.7690    -3.6550    -0.9880 c3         1 4TD       0.162100
      8 C11         -1.0220    -4.8700    -0.1200 c3         1 4TD       0.172800
      9 C12         -2.2330    -4.7030     0.7860 c3         1 4TD      -0.125850
     10 C14          1.1690    -0.4550     0.8060 c3         1 4TD       0.168350
     11 C16          3.4330    -1.0100     0.6680 c3         1 4TD       0.162100
     12 C17          4.5140    -1.4820    -0.2890 c3         1 4TD       0.172800
     13 C18          5.7940    -1.7940     0.4720 c3         1 4TD      -0.125850
     14 C20         -1.2200     0.0930     0.9530 c3         1 4TD       0.168350
     15 C22         -3.2930     1.1970     1.0410 c3         1 4TD       0.162100
     16 C23         -4.2980     1.9130     0.1620 c3         1 4TD       0.172800
     17 C24         -3.6320     2.8470    -0.8370 c3         1 4TD      -0.125850
     18 O25         -5.1020     0.9380    -0.4750 oh         1 4TD      -0.710250
     19 O21         -2.3720     0.4880     0.2570 os         1 4TD      -0.447750
     20 O15          2.2390    -0.7990    -0.0310 os         1 4TD      -0.447750
     21 O19          4.7320    -0.5640    -1.3400 oh         1 4TD      -0.710250
     22 O9          -0.5760    -2.5170    -0.1940 os         1 4TD      -0.447750
     23 O13          0.1570    -5.1330     0.6170 oh         1 4TD      -0.710250
     24 O3           0.3010     2.1930    -0.1470 os         1 4TD      -0.447750
     25 O7          -0.7110     4.7190     0.7200 oh         1 4TD      -0.710250
     26 H1           1.0130     0.8820    -1.5750 h1         1 4TD       0.034825
     27 H2          -0.7260     1.1610    -1.6040 h1         1 4TD       0.034825
     28 H3          -0.5180     3.4790    -1.5380 h1         1 4TD       0.027200
     29 H4           1.2430     3.3530    -1.5780 h1         1 4TD       0.027200
     30 H5           0.6500     5.4320    -0.6690 h1         1 4TD       0.039950
     31 H6           1.7860     5.3890     1.5410 hc         1 4TD       0.043617
     32 H7           1.6230     3.6280     1.6040 hc         1 4TD       0.043617
     33 H8           2.6270     4.3880     0.3660 hc         1 4TD       0.043617
     34 H9          -1.3110    -1.1270    -1.5290 h1         1 4TD       0.034825
     35 H10          0.4070    -1.4810    -1.6830 h1         1 4TD       0.034825
     36 H11          0.1060    -3.8340    -1.6310 h1         1 4TD       0.027200
     37 H12         -1.6310    -3.5290    -1.6600 h1         1 4TD       0.027200
     38 H13         -1.2280    -5.6940    -0.8200 h1         1 4TD       0.039950
     39 H14         -2.1070    -3.8680     1.4750 hc         1 4TD       0.043617
     40 H15         -3.1350    -4.5270     0.1980 hc         1 4TD       0.043617
     41 H16         -2.4020    -5.6080     1.3730 hc         1 4TD       0.043617
     42 H17          1.4150     0.4370     1.4000 h1         1 4TD       0.034825
     43 H18          0.9650    -1.2640     1.5220 h1         1 4TD       0.034825
     44 H19          3.3010    -1.7680     1.4550 h1         1 4TD       0.027200
     45 H20          3.7620    -0.0870     1.1730 h1         1 4TD       0.027200
     46 H21          4.1620    -2.3980    -0.7740 h1         1 4TD       0.039950
     47 H22          5.6220    -2.5540     1.2350 hc         1 4TD       0.043617
     48 H23          6.5650    -2.1690    -0.2020 hc         1 4TD       0.043617
     49 H24          6.1850    -0.9050     0.9720 hc         1 4TD       0.043617
     50 H25         -1.4150    -0.8080     1.5520 h1         1 4TD       0.034825
     51 H26         -0.9120     0.8780     1.6550 h1         1 4TD       0.034825
     52 H27         -2.7810     1.9550     1.6490 h1         1 4TD       0.027200
     53 H28         -3.8190     0.5290     1.7400 h1         1 4TD       0.027200
     54 H29         -4.9060     2.5200     0.8480 h1         1 4TD       0.039950
     55 H30         -3.0230     2.2960    -1.5520 hc         1 4TD       0.043617
     56 H31         -4.3790     3.4190    -1.3910 hc         1 4TD       0.043617
     57 H32         -2.9770     3.5560    -0.3290 hc         1 4TD       0.043617
     58 H33         -5.7600     1.3980    -1.0060 ho         1 4TD       0.495750
     59 H34          5.0780     0.2520    -0.9610 ho         1 4TD       0.495750
     60 H35          0.0130    -5.9360     1.1280 ho         1 4TD       0.495750
     61 H36         -0.6480     5.5210     1.2480 ho         1 4TD       0.495750
@<TRIPOS>BOND
     1     1     2 1   
     2     1     6 1   
     3     1    10 1   
     4     1    14 1   
     5     2    24 1   
     6     2    26 1   
     7     2    27 1   
     8     3     4 1   
     9     3    24 1   
    10     3    28 1   
    11     3    29 1   
    12     4     5 1   
    13     4    25 1   
    14     4    30 1   
    15     5    31 1   
    16     5    32 1   
    17     5    33 1   
    18     6    22 1   
    19     6    34 1   
    20     6    35 1   
    21     7     8 1   
    22     7    22 1   
    23     7    36 1   
    24     7    37 1   
    25     8     9 1   
    26     8    23 1   
    27     8    38 1   
    28     9    39 1   
    29     9    40 1   
    30     9    41 1   
    31    10    20 1   
    32    10    42 1   
    33    10    43 1   
    34    11    12 1   
    35    11    20 1   
    36    11    44 1   
    37    11    45 1   
    38    12    13 1   
    39    12    21 1   
    40    12    46 1   
    41    13    47 1   
    42    13    48 1   
    43    13    49 1   
    44    14    19 1   
    45    14    50 1   
    46    14    51 1   
    47    15    16 1   
    48    15    19 1   
    49    15    52 1   
    50    15    53 1   
    51    16    17 1   
    52    16    18 1   
    53    16    54 1   
    54    17    55 1   
    55    17    56 1   
    56    17    57 1   
    57    18    58 1   
    58    21    59 1   
    59    23    60 1   
    60    25    61 1   
@<TRIPOS>SUBSTRUCTURE
     1 4TD         1 TEMP              0 ****  ****    0 ROOT
