@<TRIPOS>MOLECULE
4TE
   24    25     1     0     0
SMALL
abcg2


@<TRIPOS>ATOM
      1 C01         -0.0500     0.6740    -0.3630 c5         1 4TE      -0.181700
      2 C02         -1.2300     0.6620     0.6290 c5         1 4TE       0.164300
      3 C03         -2.5560     0.3290    -0.0800 c5         1 4TE      -0.107700
      4 C04         -2.3110    -1.1600    -0.4210 c5         1 4TE      -0.111400
      5 C05         -0.9740    -1.4190     0.2960 c5         1 4TE       0.157300
      6 C06          0.1730    -0.8620    -0.5460 c5         1 4TE      -0.183700
      7 C07          1.5740    -1.3600    -0.1530 c          1 4TE       0.750000
      8 O08          2.5090    -0.9360    -0.8650 o          1 4TE      -0.748000
      9 O09          1.6760    -2.1710     0.7880 o          1 4TE      -0.748000
     10 O10         -1.0210    -0.5150     1.3950 os         1 4TE      -0.423000
     11 C11         -2.9630     1.2120    -1.2460 c3         1 4TE      -0.062100
     12 C12          1.1570     1.4610     0.1720 c          1 4TE       0.746000
     13 O13          1.6700     2.3000    -0.5980 o          1 4TE      -0.746500
     14 O14          1.5050     1.2360     1.3490 o          1 4TE      -0.746500
     15 H1          -0.3500     1.1240    -1.3110 hc         1 4TE       0.015700
     16 H2          -1.2860     1.5350     1.2820 h1         1 4TE       0.064700
     17 H3          -3.3440     0.3960     0.6780 hc         1 4TE       0.010700
     18 H4          -3.1100    -1.8020    -0.0450 hc         1 4TE       0.011700
     19 H5          -2.2330    -1.3310    -1.4980 hc         1 4TE       0.011700
     20 H6          -0.8270    -2.4390     0.6480 h1         1 4TE       0.078700
     21 H7           0.0340    -1.1230    -1.6000 hc         1 4TE       0.006700
     22 H9          -2.2680     1.1380    -2.0840 hc         1 4TE       0.014367
     23 H10         -3.9490     0.9290    -1.6170 hc         1 4TE       0.014367
     24 H11         -3.0160     2.2620    -0.9500 hc         1 4TE       0.014367
@<TRIPOS>BOND
     1     1     2 1   
     2     1     6 1   
     3     1    12 1   
     4     1    15 1   
     5     2     3 1   
     6     2    10 1   
     7     2    16 1   
     8     3     4 1   
     9     3    11 1   
    10     3    17 1   
    11     4     5 1   
    12     4    18 1   
    13     4    19 1   
    14     5     6 1   
    15     5    10 1   
    16     5    20 1   
    17     6     7 1   
    18     6    21 1   
    19     7     8 1   
    20     7     9 1   
    21    11    22 1   
    22    11    23 1   
    23    11    24 1   
    24    12    13 1   
    25    12    14 1   
@<TRIPOS>SUBSTRUCTURE
     1 4TE         1 TEMP              0 ****  ****    0 ROOT
