@<TRIPOS>MOLECULE
4TE
   24    25     1     0     0
SMALL
No Charge or Current Charge


@<TRIPOS>ATOM
      1 C01         -0.0490     0.7280    -0.3220 c5         1 4TE      -0.181700
      2 C02         -1.2500     0.6850     0.6850 c5         1 4TE       0.164300
      3 C03         -2.5640     0.3100    -0.0910 c5         1 4TE      -0.107700
      4 C04         -2.2930    -1.1930    -0.4520 c5         1 4TE      -0.111400
      5 C05         -0.9380    -1.4550     0.2930 c5         1 4TE       0.157300
      6 C06          0.1730    -0.8200    -0.6070 c5         1 4TE      -0.183700
      7 C07          1.5850    -1.3750    -0.2360 c          1 4TE       0.750000
      8 O08          2.3160    -1.7190    -1.1540 o          1 4TE      -0.748000
      9 O09          1.9000    -1.5870     0.9260 o          1 4TE      -0.748000
     10 O10         -1.0180    -0.5370     1.3880 os         1 4TE      -0.423000
     11 C11         -3.0010     1.2170    -1.2680 c3         1 4TE      -0.062100
     12 C12          1.1740     1.4730     0.3000 c          1 4TE       0.746000
     13 O13          1.7480     2.2970    -0.3980 o          1 4TE      -0.746500
     14 O14          1.4670     1.3420     1.4800 o          1 4TE      -0.746500
     15 H1          -0.2720     1.2190    -1.2750 hc         1 4TE       0.015700
     16 H2          -1.3390     1.5520     1.3560 h1         1 4TE       0.064700
     17 H3          -3.3990     0.3580     0.6180 hc         1 4TE       0.010700
     18 H4          -3.0890    -1.8410    -0.0690 hc         1 4TE       0.011700
     19 H5          -2.2320    -1.3750    -1.5320 hc         1 4TE       0.011700
     20 H6          -0.7650    -2.4940     0.6060 h1         1 4TE       0.078700
     21 H7           0.0230    -0.9900    -1.6810 hc         1 4TE       0.006700
     22 H9          -2.3310     1.1310    -2.1300 hc         1 4TE       0.014367
     23 H10         -4.0060     0.9440    -1.6130 hc         1 4TE       0.014367
     24 H11         -3.0300     2.2700    -0.9620 hc         1 4TE       0.014367
@<TRIPOS>BOND
     1     1     2 1   
     2     1     6 1   
     3     1    12 1   
     4     1    15 1   
     5     2     3 1   
     6     2    10 1   
     7     2    16 1   
     8     3     4 1   
     9     3    11 1   
    10     3    17 1   
    11     4     5 1   
    12     4    18 1   
    13     4    19 1   
    14     5     6 1   
    15     5    10 1   
    16     5    20 1   
    17     6     7 1   
    18     6    21 1   
    19     7     8 1   
    20     7     9 1   
    21    11    22 1   
    22    11    23 1   
    23    11    24 1   
    24    12    13 1   
    25    12    14 1   
@<TRIPOS>SUBSTRUCTURE
     1 4TE         1 TEMP              0 ****  ****    0 ROOT
