@<TRIPOS>MOLECULE
4TF
   34    35     1     0     0
SMALL
No Charge or Current Charge


@<TRIPOS>ATOM
      1 O18         -3.8700    -1.0510    -0.6830 o          1 4TF      -0.747000
      2 C16         -3.0930    -0.3350    -1.2970 c          1 4TF       0.748000
      3 O17         -3.4550     0.2680    -2.2970 o          1 4TF      -0.747000
      4 C01         -1.5730    -0.2880    -0.9360 c5         1 4TF      -0.180700
      5 C06         -1.2080     0.5210     0.3820 c5         1 4TF      -0.188700
      6 C07         -2.4250     1.1380     1.1420 c          1 4TF       0.750000
      7 O09         -2.5340     2.3560     1.1400 o          1 4TF      -0.745000
      8 O08         -3.1610     0.4470     1.8310 o          1 4TF      -0.745000
      9 C02         -1.0330    -1.7110    -0.5770 c5         1 4TF       0.153300
     10 O10         -1.2200    -1.7710     0.8400 os         1 4TF      -0.420000
     11 C05         -0.5180    -0.5930     1.2440 c5         1 4TF       0.166300
     12 C03          0.5270    -1.6200    -0.6960 c5         1 4TF      -0.106400
     13 C04          0.9030    -0.9000     0.6500 c5         1 4TF      -0.106700
     14 C11          1.8980     0.2830     0.5360 c3         1 4TF       0.169600
     15 O12          3.1840    -0.2510     0.1810 os         1 4TF      -0.472000
     16 C13          4.2150     0.7370     0.0310 c3         1 4TF       0.167600
     17 C14          5.5160     0.0050    -0.3490 c3         1 4TF      -0.081400
     18 C15          6.7100     0.9600    -0.5410 c3         1 4TF      -0.086100
     19 H2          -1.0500     0.1820    -1.7780 hc         1 4TF       0.012700
     20 H3          -0.5520     1.3510     0.0970 hc         1 4TF       0.006700
     21 H5          -1.4990    -2.5500    -1.1130 h1         1 4TF       0.068700
     22 H6          -0.5420    -0.4350     2.3320 h1         1 4TF       0.082700
     23 H7           0.9800    -2.6160    -0.7510 hc         1 4TF       0.019700
     24 H8           0.8580    -1.0720    -1.5860 hc         1 4TF       0.019700
     25 H9           1.3910    -1.6210     1.3170 hc         1 4TF       0.025700
     26 H10          1.5570     0.9930    -0.2280 h1         1 4TF       0.027700
     27 H11          1.9500     0.8050     1.5010 h1         1 4TF       0.027700
     28 H12          3.9520     1.4540    -0.7580 h1         1 4TF       0.011200
     29 H13          4.3630     1.2880     0.9690 h1         1 4TF       0.011200
     30 H14          5.7640    -0.7230     0.4340 hc         1 4TF       0.045700
     31 H15          5.3560    -0.5590    -1.2760 hc         1 4TF       0.045700
     32 H16          6.5030     1.6810    -1.3420 hc         1 4TF       0.022367
     33 H17          6.9140     1.5160     0.3820 hc         1 4TF       0.022367
     34 H18          7.6110     0.3970    -0.8100 hc         1 4TF       0.022367
@<TRIPOS>BOND
     1     1     2 1   
     2     2     3 1   
     3     2     4 1   
     4     4     5 1   
     5     4     9 1   
     6     4    19 1   
     7     5     6 1   
     8     5    11 1   
     9     5    20 1   
    10     6     7 1   
    11     6     8 1   
    12     9    10 1   
    13     9    12 1   
    14     9    21 1   
    15    10    11 1   
    16    11    13 1   
    17    11    22 1   
    18    12    13 1   
    19    12    23 1   
    20    12    24 1   
    21    13    14 1   
    22    13    25 1   
    23    14    15 1   
    24    14    26 1   
    25    14    27 1   
    26    15    16 1   
    27    16    17 1   
    28    16    28 1   
    29    16    29 1   
    30    17    18 1   
    31    17    30 1   
    32    17    31 1   
    33    18    32 1   
    34    18    33 1   
    35    18    34 1   
@<TRIPOS>SUBSTRUCTURE
     1 4TF         1 TEMP              0 ****  ****    0 ROOT
