@<TRIPOS>MOLECULE
4TF
   34    35     1     0     0
SMALL
abcg2


@<TRIPOS>ATOM
      1 O18         -3.7010    -0.8080    -0.7950 o          1 4TF      -0.747000
      2 C16         -2.8490    -0.1640    -1.4380 c          1 4TF       0.748000
      3 O17         -3.0520     0.4780    -2.4920 o          1 4TF      -0.747000
      4 C01         -1.4030    -0.2180    -0.9230 c5         1 4TF      -0.180700
      5 C06         -1.1380     0.5090     0.4330 c5         1 4TF      -0.188700
      6 C07         -2.3770     1.1570     1.0750 c          1 4TF       0.750000
      7 O09         -2.9060     2.0680     0.4060 o          1 4TF      -0.745000
      8 O08         -2.7240     0.7850     2.2130 o          1 4TF      -0.745000
      9 C02         -0.9670    -1.6490    -0.5510 c5         1 4TF       0.153300
     10 O10         -1.2640    -1.7530     0.8340 os         1 4TF      -0.420000
     11 C05         -0.5110    -0.6220     1.2500 c5         1 4TF       0.166300
     12 C03          0.5660    -1.7270    -0.5660 c5         1 4TF      -0.106400
     13 C04          0.9040    -0.9930     0.7520 c5         1 4TF      -0.106700
     14 C11          1.8810     0.1540     0.6170 c3         1 4TF       0.169600
     15 O12          3.1340    -0.3640     0.2390 os         1 4TF      -0.472000
     16 C13          4.1230     0.6280     0.1060 c3         1 4TF       0.167600
     17 C14          5.3770     0.0220    -0.4940 c3         1 4TF      -0.081400
     18 C15          6.4900     1.0540    -0.6200 c3         1 4TF      -0.086100
     19 H2          -0.7400     0.1830    -1.6940 hc         1 4TF       0.012700
     20 H3          -0.4290     1.3250     0.2710 hc         1 4TF       0.006700
     21 H5          -1.4680    -2.4440    -1.1050 h1         1 4TF       0.068700
     22 H6          -0.5830    -0.4900     2.3290 h1         1 4TF       0.082700
     23 H7           0.9140    -2.7610    -0.5520 hc         1 4TF       0.019700
     24 H8           0.9980    -1.2490    -1.4470 hc         1 4TF       0.019700
     25 H9           1.3310    -1.7000     1.4710 hc         1 4TF       0.025700
     26 H10          1.5380     0.8800    -0.1340 h1         1 4TF       0.027700
     27 H11          1.9560     0.6990     1.5710 h1         1 4TF       0.027700
     28 H12          3.7660     1.4470    -0.5370 h1         1 4TF       0.011200
     29 H13          4.3550     1.0770     1.0830 h1         1 4TF       0.011200
     30 H14          5.7140    -0.8120     0.1270 hc         1 4TF       0.045700
     31 H15          5.1430    -0.3920    -1.4790 hc         1 4TF       0.045700
     32 H16          6.1800     1.9000    -1.2360 hc         1 4TF       0.022367
     33 H17          6.7820     1.4460     0.3550 hc         1 4TF       0.022367
     34 H18          7.3780     0.6210    -1.0800 hc         1 4TF       0.022367
@<TRIPOS>BOND
     1     1     2 1   
     2     2     3 1   
     3     2     4 1   
     4     4     5 1   
     5     4     9 1   
     6     4    19 1   
     7     5     6 1   
     8     5    11 1   
     9     5    20 1   
    10     6     7 1   
    11     6     8 1   
    12     9    10 1   
    13     9    12 1   
    14     9    21 1   
    15    10    11 1   
    16    11    13 1   
    17    11    22 1   
    18    12    13 1   
    19    12    23 1   
    20    12    24 1   
    21    13    14 1   
    22    13    25 1   
    23    14    15 1   
    24    14    26 1   
    25    14    27 1   
    26    15    16 1   
    27    16    17 1   
    28    16    28 1   
    29    16    29 1   
    30    17    18 1   
    31    17    30 1   
    32    17    31 1   
    33    18    32 1   
    34    18    33 1   
    35    18    34 1   
@<TRIPOS>SUBSTRUCTURE
     1 4TF         1 TEMP              0 ****  ****    0 ROOT
