@<TRIPOS>MOLECULE
4TG
   62    64     1     0     0
SMALL
bcc


@<TRIPOS>ATOM
      1 C4          -3.8870    -3.6750    -1.0580 c          1 4TG       0.738700
      2 C5          -4.3450    -2.9270    -2.2110 cc         1 4TG      -0.293400
      3 O4          -3.7330    -4.8820    -1.0230 o          1 4TG      -0.630500
      4 C6          -4.4600    -1.5940    -2.0900 cd         1 4TG       0.069600
      5 N1          -4.1870    -0.8930    -0.9440 n          1 4TG      -0.381000
      6 N3          -3.6230    -2.8980     0.0550 ns         1 4TG      -0.600500
      7 O2B          3.3730     3.0540    -2.4890 o          1 4TG      -0.846000
      8 PB           3.1910     2.3440    -1.1860 p5         1 4TG       1.474800
      9 O1B          4.0610     2.6500    -0.0130 o          1 4TG      -0.846000
     10 O3B          3.1170     0.7230    -1.4720 os         1 4TG      -0.592200
     11 C1Q          4.1970    -0.1550    -1.5520 c6         1 4TG       0.404900
     12 O5Q          4.9670    -0.2150    -0.3930 os         1 4TG      -0.443600
     13 C5Q          4.2410    -0.4830     0.7960 c6         1 4TG       0.145100
     14 C6Q          5.2500    -0.5740     1.9210 c3         1 4TG      -0.074100
     15 C4Q          3.4010    -1.7680     0.6800 c6         1 4TG       0.089700
     16 N4Q          2.4170    -1.7470     1.7400 ns         1 4TG      -0.553900
     17 C            2.2270    -2.7040     2.6460 c          1 4TG       0.667900
     18 O            2.8740    -3.7340     2.7650 o          1 4TG      -0.689100
     19 C3Q          2.6890    -1.9160    -0.6660 c6         1 4TG       0.131100
     20 O3Q          2.2450    -3.2510    -0.7600 oh         1 4TG      -0.614800
     21 C2Q          3.6150    -1.5450    -1.8170 c6         1 4TG       0.085100
     22 O2Q          2.8710    -1.6110    -3.0070 oh         1 4TG      -0.585800
     23 O3A          1.6040     2.5070    -0.7880 os         1 4TG      -0.691800
     24 PA           0.8890     2.1820     0.6490 p5         1 4TG       1.495800
     25 O2A          1.1840     3.2550     1.6460 o          1 4TG      -0.871500
     26 O1A          1.0550     0.7400     1.0390 o          1 4TG      -0.871500
     27 O5          -0.6260     2.3890     0.0420 os         1 4TG      -0.544200
     28 C8          -1.7090     2.1360     0.9130 c3         1 4TG       0.200400
     29 C7          -2.9980     2.1680     0.1300 c5         1 4TG       0.146100
     30 O6          -3.0100     1.1170    -0.8210 os         1 4TG      -0.357600
     31 C1          -4.2880     0.5670    -0.9600 c5         1 4TG       0.326500
     32 C2          -5.1830     1.1970     0.1100 c5         1 4TG      -0.152400
     33 C3          -4.2290     1.9720     1.0190 c5         1 4TG       0.103100
     34 O3          -4.6990     3.2330     1.4270 oh         1 4TG      -0.583800
     35 C9          -3.7410    -1.5380     0.1860 c          1 4TG       0.833500
     36 O2          -3.4770    -0.9690     1.2240 o          1 4TG      -0.612500
     37 C5M         -4.6570    -3.6620    -3.4730 c3         1 4TG      -0.008900
     38 H1          -4.7930    -0.9920    -2.9250 h4         1 4TG       0.147000
     39 H2          -3.2960    -3.3820     0.8820 hn         1 4TG       0.341500
     40 H4           4.8900     0.1390    -2.3510 h2         1 4TG       0.037700
     41 H5           3.5610     0.3460     1.0020 h1         1 4TG       0.112700
     42 H6           5.8090     0.3580     2.0100 hc         1 4TG       0.030033
     43 H7           4.7450    -0.7450     2.8720 hc         1 4TG       0.030033
     44 H8           5.9560    -1.3910     1.7610 hc         1 4TG       0.030033
     45 H9           4.0510    -2.6360     0.8200 h1         1 4TG       0.058700
     46 H10          1.7960    -0.9390     1.7240 hn         1 4TG       0.400500
     47 H11          1.3920    -2.4590     3.3210 h5         1 4TG      -0.016800
     48 H12          1.8360    -1.2250    -0.6750 h1         1 4TG       0.114700
     49 H13          1.6900    -3.3230    -1.5420 ho         1 4TG       0.397000
     50 H14          4.4590    -2.2510    -1.8370 h1         1 4TG       0.012700
     51 H15          3.4800    -1.6280    -3.7520 ho         1 4TG       0.383000
     52 H17         -1.6110     1.1590     1.3990 h1         1 4TG       0.030200
     53 H18         -1.7700     2.8960     1.7010 h1         1 4TG       0.030200
     54 H19         -3.0920     3.1330    -0.3890 h1         1 4TG       0.071700
     55 H20         -4.6850     0.7940    -1.9520 h2         1 4TG       0.046700
     56 H21         -5.8570     1.9030    -0.3790 hc         1 4TG       0.052200
     57 H22         -5.7970     0.4700     0.6390 hc         1 4TG       0.052200
     58 H23         -3.9630     1.3630     1.8870 h1         1 4TG       0.071700
     59 H24         -5.3090     3.1050     2.1590 ho         1 4TG       0.390000
     60 H25         -5.4300    -4.4150    -3.3130 hc         1 4TG       0.036367
     61 H26         -5.0110    -2.9780    -4.2430 hc         1 4TG       0.036367
     62 H27         -3.7780    -4.1780    -3.8620 hc         1 4TG       0.036367
@<TRIPOS>BOND
     1     1     2 1   
     2     1     3 2   
     3     1     6 1   
     4     2     4 2   
     5     2    37 1   
     6     4     5 1   
     7     4    38 1   
     8     5    31 1   
     9     5    35 1   
    10     6    35 1   
    11     6    39 1   
    12     7     8 1   
    13     8     9 1   
    14     8    10 1   
    15     8    23 1   
    16    10    11 1   
    17    11    12 1   
    18    11    21 1   
    19    11    40 1   
    20    12    13 1   
    21    13    14 1   
    22    13    15 1   
    23    13    41 1   
    24    14    42 1   
    25    14    43 1   
    26    14    44 1   
    27    15    16 1   
    28    15    19 1   
    29    15    45 1   
    30    16    17 1   
    31    16    46 1   
    32    17    18 2   
    33    17    47 1   
    34    19    20 1   
    35    19    21 1   
    36    19    48 1   
    37    20    49 1   
    38    21    22 1   
    39    21    50 1   
    40    22    51 1   
    41    23    24 1   
    42    24    25 1   
    43    24    26 1   
    44    24    27 1   
    45    27    28 1   
    46    28    29 1   
    47    28    52 1   
    48    28    53 1   
    49    29    30 1   
    50    29    33 1   
    51    29    54 1   
    52    30    31 1   
    53    31    32 1   
    54    31    55 1   
    55    32    33 1   
    56    32    56 1   
    57    32    57 1   
    58    33    34 1   
    59    33    58 1   
    60    34    59 1   
    61    35    36 2   
    62    37    60 1   
    63    37    61 1   
    64    37    62 1   
@<TRIPOS>SUBSTRUCTURE
     1 4TG         1 TEMP              0 ****  ****    0 ROOT
