@<TRIPOS>MOLECULE
4TG
   62    64     1     0     0
SMALL
No Charge or Current Charge


@<TRIPOS>ATOM
      1 C4          -3.0630    -4.1270    -0.9540 c          1 4TG       0.596200
      2 C5          -4.0510    -3.3980    -1.7770 cc         1 4TG      -0.293400
      3 O4          -2.8980    -5.3360    -0.9690 o          1 4TG      -0.555000
      4 C6          -4.1440    -2.0270    -1.6780 cd         1 4TG       0.019600
      5 N1          -3.3160    -1.3160    -0.8100 n          1 4TG      -0.314000
      6 N3          -2.3230    -3.3330    -0.1400 ns         1 4TG      -0.466500
      7 O2B          3.6970     2.5450    -2.3090 o          1 4TG      -0.846000
      8 PB           3.3560     2.7020    -0.8660 p5         1 4TG       1.474800
      9 O1B          4.0080     3.8830    -0.2300 o          1 4TG      -0.846000
     10 O3B          3.7890     1.3810    -0.0720 os         1 4TG      -0.615400
     11 C1Q          4.1010     0.1560    -0.7470 c6         1 4TG       0.451300
     12 O5Q          4.4580    -0.7890     0.2800 os         1 4TG      -0.490000
     13 C5Q          3.3710    -1.1590     1.1660 c6         1 4TG       0.168300
     14 C6Q          4.0110    -2.0290     2.2790 c3         1 4TG      -0.074100
     15 C4Q          2.2320    -1.8740     0.3630 c6         1 4TG       0.089700
     16 N4Q          1.0760    -2.2610     1.2050 ns         1 4TG      -0.486900
     17 C            0.9320    -3.4350     1.9030 c          1 4TG       0.600900
     18 O            1.7920    -4.3060     1.9370 o          1 4TG      -0.689100
     19 C3Q          1.7690    -0.9230    -0.7870 c6         1 4TG       0.154300
     20 O3Q          0.7930    -1.5680    -1.6260 oh         1 4TG      -0.677000
     21 C2Q          2.9790    -0.4940    -1.6630 c6         1 4TG       0.108300
     22 O2Q          2.5340     0.3010    -2.7920 oh         1 4TG      -0.708000
     23 O3A          1.8190     2.5420    -0.5940 os         1 4TG      -0.691800
     24 PA           1.0460     3.9060    -0.7160 p5         1 4TG       1.495800
     25 O2A          1.3290     4.6590    -1.9740 o          1 4TG      -0.871500
     26 O1A          1.1390     4.7630     0.5040 o          1 4TG      -0.871500
     27 O5          -0.4270     3.2660    -0.8160 os         1 4TG      -0.567400
     28 C8          -1.0160     2.7150     0.3700 c3         1 4TG       0.223600
     29 C7          -2.3570     2.0410    -0.0090 c5         1 4TG       0.169300
     30 O6          -2.1360     0.8230    -0.7440 os         1 4TG      -0.404000
     31 C1          -3.4110     0.1660    -0.8040 c5         1 4TG       0.349700
     32 C2          -4.2130     0.6050     0.4630 c5         1 4TG      -0.152400
     33 C3          -3.1980     1.5270     1.1960 c5         1 4TG       0.126300
     34 O3          -3.8560     2.5710     1.9210 oh         1 4TG      -0.706000
     35 C9          -2.3730    -1.9830     0.0030 c          1 4TG       0.624000
     36 O2          -1.6510    -1.4360     0.8220 o          1 4TG      -0.537000
     37 C5M         -4.9050    -4.2420    -2.6940 c3         1 4TG      -0.008900
     38 H1          -4.8400    -1.4180    -2.2490 h4         1 4TG       0.197000
     39 H2          -1.6530    -3.8110     0.4370 hn         1 4TG       0.341500
     40 H4           4.9880     0.3280    -1.3750 h2         1 4TG       0.037700
     41 H5           2.9680    -0.2520     1.6430 h1         1 4TG       0.112700
     42 H6           4.8650    -1.5140     2.7350 hc         1 4TG       0.030033
     43 H7           3.2950    -2.2360     3.0830 hc         1 4TG       0.030033
     44 H8           4.3680    -2.9860     1.8820 hc         1 4TG       0.030033
     45 H9           2.6470    -2.7870    -0.0880 h1         1 4TG       0.058700
     46 H10          0.2390    -1.6810     1.1680 hn         1 4TG       0.400500
     47 H11         -0.0460    -3.5070     2.4140 h5         1 4TG      -0.016800
     48 H12          1.3380    -0.0150    -0.3350 h1         1 4TG       0.114700
     49 H13          0.8660    -1.0860    -2.4820 ho         1 4TG       0.436000
     50 H14          3.4220    -1.4170    -2.0660 h1         1 4TG       0.012700
     51 H15          2.9900     1.1950    -2.7180 ho         1 4TG       0.482000
     52 H17         -0.3560     1.9710     0.8360 h1         1 4TG       0.030200
     53 H18         -1.2150     3.5070     1.1030 h1         1 4TG       0.030200
     54 H19         -2.9420     2.7370    -0.6270 h1         1 4TG       0.071700
     55 H20         -3.9380     0.4700    -1.7160 h2         1 4TG       0.046700
     56 H21         -5.1170     1.1460     0.1630 hc         1 4TG       0.052200
     57 H22         -4.5340    -0.2340     1.0920 hc         1 4TG       0.052200
     58 H23         -2.5560     0.9360     1.8670 h1         1 4TG       0.071700
     59 H24         -4.4090     2.1390     2.6130 ho         1 4TG       0.489000
     60 H25         -5.4920    -4.9720    -2.1240 hc         1 4TG       0.036367
     61 H26         -5.6090    -3.6230    -3.2640 hc         1 4TG       0.036367
     62 H27         -4.2870    -4.7900    -3.4140 hc         1 4TG       0.036367
@<TRIPOS>BOND
     1     1     2 1   
     2     1     3 2   
     3     1     6 1   
     4     2     4 2   
     5     2    37 1   
     6     4     5 1   
     7     4    38 1   
     8     5    31 1   
     9     5    35 1   
    10     6    35 1   
    11     6    39 1   
    12     7     8 1   
    13     8     9 1   
    14     8    10 1   
    15     8    23 1   
    16    10    11 1   
    17    11    12 1   
    18    11    21 1   
    19    11    40 1   
    20    12    13 1   
    21    13    14 1   
    22    13    15 1   
    23    13    41 1   
    24    14    42 1   
    25    14    43 1   
    26    14    44 1   
    27    15    16 1   
    28    15    19 1   
    29    15    45 1   
    30    16    17 1   
    31    16    46 1   
    32    17    18 2   
    33    17    47 1   
    34    19    20 1   
    35    19    21 1   
    36    19    48 1   
    37    20    49 1   
    38    21    22 1   
    39    21    50 1   
    40    22    51 1   
    41    23    24 1   
    42    24    25 1   
    43    24    26 1   
    44    24    27 1   
    45    27    28 1   
    46    28    29 1   
    47    28    52 1   
    48    28    53 1   
    49    29    30 1   
    50    29    33 1   
    51    29    54 1   
    52    30    31 1   
    53    31    32 1   
    54    31    55 1   
    55    32    33 1   
    56    32    56 1   
    57    32    57 1   
    58    33    34 1   
    59    33    58 1   
    60    34    59 1   
    61    35    36 2   
    62    37    60 1   
    63    37    61 1   
    64    37    62 1   
@<TRIPOS>SUBSTRUCTURE
     1 4TG         1 TEMP              0 ****  ****    0 ROOT
