@<TRIPOS>MOLECULE
4TH
   74    78     1     0     0
SMALL
No Charge or Current Charge


@<TRIPOS>ATOM
      1 C2           0.6260    -3.7220     1.4790 ca         1 4TH       0.124000
      2 C3           1.3880    -2.9850     0.5600 ca         1 4TH      -0.104500
      3 C11         -1.6450     1.5510     2.5530 c6         1 4TH      -0.112100
      4 C12         -2.6640     1.1610     1.4940 ca         1 4TH      -0.063300
      5 C13         -2.1890     0.5070     0.3450 ca         1 4TH      -0.090300
      6 C14         -3.0960     0.1010    -0.6510 ca         1 4TH      -0.161000
      7 C15         -4.4800     0.3540    -0.5040 ca         1 4TH       0.129100
      8 C16         -4.9530     1.0070     0.6620 ca         1 4TH       0.120100
      9 C17         -4.0360     1.4090     1.6600 ca         1 4TH      -0.170000
     10 C22         -5.0550    -0.5180    -2.7730 c3         1 4TH       0.174300
     11 C23         -6.3210    -1.1700    -3.3770 c3         1 4TH      -0.074400
     12 C25          1.4810     1.5470     0.2930 ca         1 4TH      -0.106000
     13 C26          1.6790     1.7370    -1.0930 ca         1 4TH      -0.053500
     14 C27          2.9470     2.0800    -1.5930 ca         1 4TH      -0.185500
     15 C28          4.0250     2.2940    -0.7180 ca         1 4TH       0.340000
     16 C29          3.8020     2.2180     0.6650 ca         1 4TH      -0.185500
     17 C30          2.5350     1.8830     1.1680 ca         1 4TH      -0.053500
     18 Cl1          1.1690    -5.3130     1.9960 cl         1 4TH      -0.202000
     19 C4           0.9540    -1.7140     0.1470 ca         1 4TH      -0.087000
     20 C5          -0.2440    -1.1640     0.6530 ca         1 4TH      -0.095300
     21 C6          -1.0050    -1.9170     1.5760 ca         1 4TH      -0.087000
     22 C7          -0.5700    -3.1900     1.9850 ca         1 4TH      -0.104500
     23 C8          -0.6760     0.2400     0.1890 c6         1 4TH       0.228300
     24 N9           0.1640     1.2970     0.8320 n          1 4TH      -0.230400
     25 C10         -0.4200     2.1170     1.8280 c          1 4TH       0.575000
     26 O21         -5.4070    -0.0370    -1.4600 os         1 4TH      -0.333100
     27 O24         -0.0320     3.2590     2.0470 o          1 4TH      -0.549000
     28 C31         -4.5630     0.6820    -3.6130 c3         1 4TH      -0.118100
     29 N32          5.3190     2.5660    -1.2110 nh         1 4TH      -0.835400
     30 C33          5.5200     3.4320    -2.3930 c3         1 4TH       0.221100
     31 C34          6.4620     1.7200    -0.7860 c3         1 4TH       0.275100
     32 N35          5.3300    -2.4650    -0.2740 nb         1 4TH      -0.663000
     33 C36          5.7110    -0.5450    -1.7040 ca         1 4TH      -0.158000
     34 C37          5.3400    -1.8840    -1.4960 ca         1 4TH       0.336400
     35 C38          5.6940    -1.7050     0.7850 ca         1 4TH       0.336400
     36 C39          6.0800    -0.3580     0.6660 ca         1 4TH      -0.158000
     37 C40          6.0920     0.2480    -0.6050 ca         1 4TH      -0.074300
     38 H1           2.3150    -3.3980     0.1690 ha         1 4TH       0.129500
     39 H2          -6.0300    -3.1760    -2.5560 hc         1 4TH       0.038367
     40 H3          -7.1020    -2.1470    -1.5780 hc         1 4TH       0.038367
     41 H4          -7.6890    -2.8480    -3.0990 hc         1 4TH       0.038367
     42 H5          -2.0340     2.2720     3.2840 hc         1 4TH       0.079200
     43 H6          -1.3430     0.6210     3.0500 hc         1 4TH       0.079200
     44 H7          -2.7090    -0.4130    -1.5250 ha         1 4TH       0.121000
     45 H8          -4.3720     1.9070     2.5650 ha         1 4TH       0.122000
     46 H9          -7.9740     1.9610     1.8270 h1         1 4TH       0.040700
     47 H10         -6.6730     1.3220     2.8530 h1         1 4TH       0.040700
     48 H11         -6.4850     2.9030     2.0450 h1         1 4TH       0.040700
     49 H12         -4.2720    -1.2860    -2.7210 h1         1 4TH       0.043700
     50 H13         -6.1090    -1.4660    -4.4110 hc         1 4TH       0.048200
     51 H14         -7.1290    -0.4280    -3.4210 hc         1 4TH       0.048200
     52 H15          0.8620     1.6110    -1.7990 ha         1 4TH       0.117500
     53 H16          3.0910     2.1640    -2.6650 ha         1 4TH       0.115000
     54 H17          4.6160     2.4200     1.3550 ha         1 4TH       0.115000
     55 H18          2.3860     1.8350     2.2440 ha         1 4TH       0.117500
     56 H19          1.5560    -1.1550    -0.5650 ha         1 4TH       0.117000
     57 H20         -1.9350    -1.5280     1.9840 ha         1 4TH       0.117000
     58 H21         -1.1590    -3.7640     2.6960 ha         1 4TH       0.129500
     59 H22         -0.4900     0.2680    -0.8910 h1         1 4TH       0.066700
     60 H23         -5.3310     1.4640    -3.6610 hc         1 4TH       0.045367
     61 H24         -3.6520     1.1210    -3.1900 hc         1 4TH       0.045367
     62 H25         -4.3360     0.3630    -4.6370 hc         1 4TH       0.045367
     63 H26          4.7300     4.1940    -2.4520 h1         1 4TH       0.036367
     64 H27          6.4840     3.9550    -2.3290 h1         1 4TH       0.036367
     65 H28          5.5040     2.8360    -3.3150 h1         1 4TH       0.036367
     66 H29          7.2710     1.7750    -1.5280 h1         1 4TH       0.061700
     67 H30          6.8730     2.1080     0.1570 h1         1 4TH       0.061700
     68 H31          5.6880    -0.1280    -2.7060 ha         1 4TH       0.124500
     69 H32          5.0380    -2.5120    -2.3340 h4         1 4TH       0.018600
     70 H33          5.6750    -2.1910     1.7600 h4         1 4TH       0.018600
     71 H34          6.3530     0.2020     1.5550 ha         1 4TH       0.124500
     72 O18         -6.3140     1.2330     0.7890 os         1 4TH      -0.319100
     73 C41         -6.8140    -2.4110    -2.6030 c3         1 4TH      -0.088100
     74 C19         -6.8850     1.8870     1.9360 c3         1 4TH       0.143900
@<TRIPOS>BOND
     1     1     2 ar  
     2     1    18 1   
     3     1    22 ar  
     4     2    19 ar  
     5     2    38 1   
     6     3     4 1   
     7     3    25 1   
     8     3    42 1   
     9     3    43 1   
    10     4     5 ar  
    11     4     9 ar  
    12     5     6 ar  
    13     5    23 1   
    14     6     7 ar  
    15     6    44 1   
    16     7     8 ar  
    17     7    26 1   
    18     8     9 ar  
    19     8    72 1   
    20     9    45 1   
    21    10    11 1   
    22    10    26 1   
    23    10    28 1   
    24    10    49 1   
    25    11    50 1   
    26    11    51 1   
    27    11    73 1   
    28    12    13 ar  
    29    12    17 ar  
    30    12    24 1   
    31    13    14 ar  
    32    13    52 1   
    33    14    15 ar  
    34    14    53 1   
    35    15    16 ar  
    36    15    29 1   
    37    16    17 ar  
    38    16    54 1   
    39    17    55 1   
    40    19    20 ar  
    41    19    56 1   
    42    20    21 ar  
    43    20    23 1   
    44    21    22 ar  
    45    21    57 1   
    46    22    58 1   
    47    23    24 1   
    48    23    59 1   
    49    24    25 1   
    50    25    27 2   
    51    28    60 1   
    52    28    61 1   
    53    28    62 1   
    54    29    30 1   
    55    29    31 1   
    56    30    63 1   
    57    30    64 1   
    58    30    65 1   
    59    31    37 1   
    60    31    66 1   
    61    31    67 1   
    62    32    34 ar  
    63    32    35 ar  
    64    33    34 ar  
    65    33    37 ar  
    66    33    68 1   
    67    34    69 1   
    68    35    36 ar  
    69    35    70 1   
    70    36    37 ar  
    71    36    71 1   
    72    39    73 1   
    73    40    73 1   
    74    41    73 1   
    75    46    74 1   
    76    47    74 1   
    77    48    74 1   
    78    72    74 1   
@<TRIPOS>SUBSTRUCTURE
     1 4TH         1 TEMP              0 ****  ****    0 ROOT
