@<TRIPOS>MOLECULE
4TH
   74    78     1     0     0
SMALL
abcg2


@<TRIPOS>ATOM
      1 C2           0.2230    -3.3440     0.8150 ca         1 4TH       0.124000
      2 C3           0.2260    -2.8740    -0.4870 ca         1 4TH      -0.104500
      3 C11         -2.0140     2.1240     2.3060 c6         1 4TH      -0.112100
      4 C12         -2.8900     1.5780     1.2230 ca         1 4TH      -0.063300
      5 C13         -2.3400     0.9180     0.1500 ca         1 4TH      -0.090300
      6 C14         -3.1650     0.3900    -0.8470 ca         1 4TH      -0.161000
      7 C15         -4.5380     0.5150    -0.7750 ca         1 4TH       0.129100
      8 C16         -5.1060     1.1980     0.3260 ca         1 4TH       0.120100
      9 C17         -4.2800     1.7190     1.3030 ca         1 4TH      -0.170000
     10 C22         -5.0060    -0.9640    -2.6110 c3         1 4TH       0.174300
     11 C23         -6.2240    -1.8360    -2.8740 c3         1 4TH      -0.074400
     12 C25          1.2680     1.8480     0.4790 ca         1 4TH      -0.106000
     13 C26          1.6110     2.6730    -0.5810 ca         1 4TH      -0.053500
     14 C27          2.9300     2.8180    -0.9770 ca         1 4TH      -0.185500
     15 C28          3.9650     2.1390    -0.3100 ca         1 4TH       0.340000
     16 C29          3.6000     1.3040     0.7620 ca         1 4TH      -0.185500
     17 C30          2.2770     1.1660     1.1430 ca         1 4TH      -0.053500
     18 CL1          0.6470    -4.9950     1.1300 cl         1 4TH      -0.202000
     19 C4          -0.1100    -1.5480    -0.7240 ca         1 4TH      -0.087000
     20 C5          -0.4530    -0.6970     0.3180 ca         1 4TH      -0.095300
     21 C6          -0.4490    -1.1940     1.6180 ca         1 4TH      -0.087000
     22 C7          -0.1120    -2.5120     1.8750 ca         1 4TH      -0.104500
     23 C8          -0.8510     0.7380     0.0250 c6         1 4TH       0.228300
     24 N9          -0.0990     1.6820     0.8420 n          1 4TH      -0.230400
     25 C10         -0.5760     2.3570     1.9140 c          1 4TH       0.575000
     26 O21         -5.4120     0.0420    -1.6780 os         1 4TH      -0.333100
     27 O24          0.1290     3.1150     2.5620 o          1 4TH      -0.549000
     28 C31         -4.4720    -0.3360    -3.8870 c3         1 4TH      -0.118100
     29 N32          5.2720     2.2900    -0.6970 nh         1 4TH      -0.835400
     30 C33          5.5900     3.0560    -1.8800 c3         1 4TH       0.221100
     31 C34          6.3220     1.5840    -0.0170 c3         1 4TH       0.275100
     32 N35          6.6940    -2.6120    -0.9360 nb         1 4TH      -0.663000
     33 C36          5.7700    -0.4580    -1.4280 ca         1 4TH      -0.158000
     34 C37          5.9360    -1.8130    -1.6770 ca         1 4TH       0.336400
     35 C38          7.3200    -2.0630     0.1000 ca         1 4TH       0.336400
     36 C39          7.2170    -0.7230     0.4350 ca         1 4TH      -0.158000
     37 C40          6.4260     0.1130    -0.3460 ca         1 4TH      -0.074300
     38 H1           0.4920    -3.5250    -1.3090 ha         1 4TH       0.129500
     39 H2          -6.0440    -3.0620    -1.0900 hc         1 4TH       0.038367
     40 H3          -7.1880    -1.7310    -0.9290 hc         1 4TH       0.038367
     41 H4          -7.6180    -3.1520    -1.8730 hc         1 4TH       0.038367
     42 H5          -2.4030     3.0720     2.6810 hc         1 4TH       0.079200
     43 H6          -2.0060     1.4480     3.1700 hc         1 4TH       0.079200
     44 H7          -2.7040    -0.1150    -1.6860 ha         1 4TH       0.121000
     45 H8          -4.6970     2.2380     2.1560 ha         1 4TH       0.122000
     46 H9          -8.1440     1.9050     1.2110 h1         1 4TH       0.040700
     47 H10         -6.8690     1.4600     2.3590 h1         1 4TH       0.040700
     48 H11         -6.7700     2.9950     1.4690 h1         1 4TH       0.040700
     49 H12         -4.2300    -1.5860    -2.1470 h1         1 4TH       0.043700
     50 H13         -5.9210    -2.6110    -3.5820 hc         1 4TH       0.048200
     51 H14         -6.9900    -1.2420    -3.3810 hc         1 4TH       0.048200
     52 H15          0.8400     3.2170    -1.1130 ha         1 4TH       0.117500
     53 H16          3.1430     3.4710    -1.8110 ha         1 4TH       0.115000
     54 H17          4.3410     0.7360     1.3070 ha         1 4TH       0.115000
     55 H18          2.0350     0.5080     1.9670 ha         1 4TH       0.117500
     56 H19         -0.0980    -1.1780    -1.7420 ha         1 4TH       0.117000
     57 H20         -0.7040    -0.5560     2.4550 ha         1 4TH       0.117000
     58 H21         -0.1100    -2.8870     2.8890 ha         1 4TH       0.129500
     59 H22         -0.5790     0.9450    -1.0140 h1         1 4TH       0.066700
     60 H23         -5.2500     0.2420    -4.3890 hc         1 4TH       0.045367
     61 H24         -3.6240     0.3240    -3.7060 hc         1 4TH       0.045367
     62 H25         -4.1410    -1.1170    -4.5720 hc         1 4TH       0.045367
     63 H26          5.3250     4.1110    -1.7700 h1         1 4TH       0.036367
     64 H27          6.6590     3.0030    -2.0650 h1         1 4TH       0.036367
     65 H28          5.0810     2.6740    -2.7700 h1         1 4TH       0.036367
     66 H29          7.2710     2.0580    -0.2720 h1         1 4TH       0.061700
     67 H30          6.2280     1.7040     1.0670 h1         1 4TH       0.061700
     68 H31          5.1320     0.1310    -2.0740 ha         1 4TH       0.124500
     69 H32          5.4260    -2.2710    -2.5170 h4         1 4TH       0.018600
     70 H33          7.9350    -2.7240     0.7010 h4         1 4TH       0.018600
     71 H34          7.7490    -0.3410     1.2980 ha         1 4TH       0.124500
     72 O18         -6.4480     1.2820     0.3250 os         1 4TH      -0.319100
     73 C41         -6.7990    -2.4780    -1.6200 c3         1 4TH      -0.088100
     74 C19         -7.0750     1.9470     1.4020 c3         1 4TH       0.143900
@<TRIPOS>BOND
     1     1     2 ar  
     2     1    18 1   
     3     1    22 ar  
     4     2    19 ar  
     5     2    38 1   
     6     3     4 1   
     7     3    25 1   
     8     3    42 1   
     9     3    43 1   
    10     4     5 ar  
    11     4     9 ar  
    12     5     6 ar  
    13     5    23 1   
    14     6     7 ar  
    15     6    44 1   
    16     7     8 ar  
    17     7    26 1   
    18     8     9 ar  
    19     8    72 1   
    20     9    45 1   
    21    10    11 1   
    22    10    26 1   
    23    10    28 1   
    24    10    49 1   
    25    11    50 1   
    26    11    51 1   
    27    11    73 1   
    28    12    13 ar  
    29    12    17 ar  
    30    12    24 1   
    31    13    14 ar  
    32    13    52 1   
    33    14    15 ar  
    34    14    53 1   
    35    15    16 ar  
    36    15    29 1   
    37    16    17 ar  
    38    16    54 1   
    39    17    55 1   
    40    19    20 ar  
    41    19    56 1   
    42    20    21 ar  
    43    20    23 1   
    44    21    22 ar  
    45    21    57 1   
    46    22    58 1   
    47    23    24 1   
    48    23    59 1   
    49    24    25 1   
    50    25    27 2   
    51    28    60 1   
    52    28    61 1   
    53    28    62 1   
    54    29    30 1   
    55    29    31 1   
    56    30    63 1   
    57    30    64 1   
    58    30    65 1   
    59    31    37 1   
    60    31    66 1   
    61    31    67 1   
    62    32    34 ar  
    63    32    35 ar  
    64    33    34 ar  
    65    33    37 ar  
    66    33    68 1   
    67    34    69 1   
    68    35    36 ar  
    69    35    70 1   
    70    36    37 ar  
    71    36    71 1   
    72    39    73 1   
    73    40    73 1   
    74    41    73 1   
    75    46    74 1   
    76    47    74 1   
    77    48    74 1   
    78    72    74 1   
@<TRIPOS>SUBSTRUCTURE
     1 4TH         1 TEMP              0 ****  ****    0 ROOT
