@<TRIPOS>MOLECULE
4TJ
  137   142     1     0     0
SMALL
abcg2


@<TRIPOS>ATOM
      1 N1         -14.3130     2.9850    -3.3520 n          1 4TJ      -0.373400
      2 N3         -13.5490     3.8090    -1.2690 n          1 4TJ      -0.358300
      3 C4         -13.2840     2.5200    -0.9080 cc         1 4TJ       0.445900
      4 C5         -13.5300     1.4770    -1.7590 cd         1 4TJ      -0.354600
      5 C6         -14.0700     1.6370    -3.0620 c          1 4TJ       0.636600
      6 C8         -12.7050     0.7760     0.1390 cd         1 4TJ       0.464800
      7 C15        -10.8440     0.2570     1.7360 c3         1 4TJ      -0.062400
      8 C17        -10.3650    -0.7280     2.7960 c3         1 4TJ      -0.159400
      9 C21         -6.7840    -1.0620     4.0030 c3         1 4TJ       0.105000
     10 C22         -6.1910    -2.3640     4.4910 c3         1 4TJ       0.139600
     11 C24         -5.6030    -4.5180     3.7640 c3         1 4TJ       0.160600
     12 C28         -3.3740    -4.8880    -0.4020 c3         1 4TJ       0.105000
     13 O6         -14.3090     0.7420    -3.8540 o          1 4TJ      -0.540000
     14 C1         -14.8700     3.3260    -4.6560 c3         1 4TJ       0.085300
     15 N7         -13.1450     0.3620    -1.0570 na         1 4TJ      -0.247500
     16 C14        -12.2110    -0.1500     1.1910 c3         1 4TJ      -0.110700
     17 C18         -9.0440    -0.3090     3.4050 c          1 4TJ       0.598100
     18 N20         -8.1080    -1.2690     3.4640 ns         1 4TJ      -0.502900
     19 O23         -6.0950    -3.2510     3.4030 os         1 4TJ      -0.458000
     20 C25         -5.5000    -5.3870     2.5370 c3         1 4TJ       0.163600
     21 O26         -4.5550    -4.8400     1.6550 os         1 4TJ      -0.456000
     22 C27         -4.3800    -5.5960     0.4830 c3         1 4TJ       0.131600
     23 O19         -8.8600     0.8250     3.8290 o          1 4TJ      -0.605100
     24 N9         -12.7760     2.0950     0.2610 nc         1 4TJ      -0.704000
     25 C3         -13.3030     4.9220    -0.3680 c3         1 4TJ       0.101300
     26 C2         -14.0860     4.0650    -2.5050 c          1 4TJ       0.616000
     27 O2         -14.3530     5.1990    -2.8530 o          1 4TJ      -0.552000
     28 H1         -10.9020     1.2600     2.1600 hc         1 4TJ       0.071200
     29 H2         -10.1210     0.2980     0.9170 hc         1 4TJ       0.071200
     30 H3         -11.0980    -0.7780     3.6070 hc         1 4TJ       0.054700
     31 H4         -10.3020    -1.7330     2.3730 hc         1 4TJ       0.054700
     32 H5          -6.8400    -0.3720     4.8450 h1         1 4TJ       0.062200
     33 H6          -6.1230    -0.6070     3.2580 h1         1 4TJ       0.062200
     34 H7          -5.2040    -2.1640     4.9270 h1         1 4TJ       0.032200
     35 H8          -6.8200    -2.7860     5.2870 h1         1 4TJ       0.032200
     36 H9          -4.6190    -4.4330     4.2450 h1         1 4TJ       0.031200
     37 H10         -6.2710    -5.0120     4.4830 h1         1 4TJ       0.031200
     38 H11         -3.2840    -5.4320    -1.3410 h1         1 4TJ       0.066200
     39 H12         -3.7360    -3.8870    -0.6430 h1         1 4TJ       0.066200
     40 H14        -15.8510     3.7840    -4.5490 h1         1 4TJ       0.057700
     41 H15        -14.2130     4.0130    -5.1850 h1         1 4TJ       0.057700
     42 H16        -14.9700     2.4170    -5.2370 h1         1 4TJ       0.057700
     43 H17        -13.1890    -0.5930    -1.3780 hn         1 4TJ       0.374000
     44 H18        -12.9390    -0.1690     2.0070 hc         1 4TJ       0.057700
     45 H19        -12.1700    -1.1640     0.7870 hc         1 4TJ       0.057700
     46 H20         -8.2920    -2.1500     3.0120 hn         1 4TJ       0.322500
     47 H21         -5.2090    -6.3970     2.8570 h1         1 4TJ       0.030200
     48 H22         -6.4840    -5.4770     2.0540 h1         1 4TJ       0.030200
     49 H23         -5.3270    -5.7010    -0.0660 h1         1 4TJ       0.034200
     50 H24         -4.0270    -6.6100     0.7160 h1         1 4TJ       0.034200
     51 H26        -12.6620     5.6630    -0.8400 h1         1 4TJ       0.059700
     52 H27        -14.2370     5.3960    -0.0700 h1         1 4TJ       0.059700
     53 H28        -12.8040     4.5420     0.5170 h1         1 4TJ       0.059700
     54 N2          -2.0700    -4.7680     0.2060 ns         1 4TJ      -0.501900
     55 C7          -1.0830    -5.6640     0.0400 c          1 4TJ       0.597100
     56 O1          -1.1830    -6.6360    -0.6990 o          1 4TJ      -0.604100
     57 C9           0.1850    -5.3880     0.8180 c3         1 4TJ      -0.157400
     58 C10          1.4010    -5.2590    -0.0960 c3         1 4TJ      -0.068400
     59 C11          2.6890    -5.0790     0.6970 c3         1 4TJ      -0.073400
     60 C12          3.8840    -4.7680    -0.1940 c3         1 4TJ      -0.098400
     61 C13          5.1660    -4.6480     0.6210 c3         1 4TJ       0.056600
     62 N4           6.2830    -4.1670    -0.1720 nh         1 4TJ      -0.137500
     63 C16          6.6180    -2.8810    -0.3560 ce         1 4TJ       0.400600
     64 C19          7.1110    -5.0240    -0.9020 ca         1 4TJ      -0.083200
     65 C20          7.8400    -2.8120    -1.2650 c5         1 4TJ      -0.072000
     66 C26          8.0660    -4.2710    -1.5640 ca         1 4TJ      -0.116300
     67 C23          5.9040    -1.8330     0.2050 ce         1 4TJ      -0.483600
     68 C29          6.2250    -0.4860     0.0890 cf         1 4TJ       0.045000
     69 C30          5.4690     0.5340     0.6500 cf         1 4TJ      -0.373000
     70 C31          5.8320     1.8660     0.5160 ce         1 4TJ       0.047000
     71 C32          5.1110     2.9180     1.0720 ce         1 4TJ      -0.400000
     72 C33          7.5370    -2.0570    -2.5670 c3         1 4TJ      -0.071100
     73 C34          9.0580    -2.2250    -0.5400 c3         1 4TJ      -0.071100
     74 C35          5.4310     4.2620     0.9740 c2         1 4TJ       0.266800
     75 N5           4.6820     5.2260     1.5340 nh         1 4TJ      -0.597200
     76 C37          6.6180     4.9070     0.2650 c5         1 4TJ       0.010500
     77 C38          5.2400     6.4890     1.3410 ca         1 4TJ       0.229000
     78 C39          6.3940     6.3620     0.5840 ca         1 4TJ      -0.158300
     79 C40          7.9600     4.4390     0.8430 c3         1 4TJ      -0.072100
     80 C41          6.5530     4.6880    -1.2540 c3         1 4TJ      -0.072100
     81 H13         -1.9300    -4.0170     0.8620 hn         1 4TJ       0.318500
     82 H25          0.0880    -4.4870     1.4300 hc         1 4TJ       0.056200
     83 H29          0.3340    -6.2220     1.5100 hc         1 4TJ       0.056200
     84 H30          1.4820    -6.1440    -0.7310 hc         1 4TJ       0.059200
     85 H31          1.2600    -4.4040    -0.7650 hc         1 4TJ       0.059200
     86 H32          2.5640    -4.2670     1.4210 hc         1 4TJ       0.039700
     87 H33          2.8830    -5.9820     1.2840 hc         1 4TJ       0.039700
     88 H34          4.0040    -5.5460    -0.9540 hc         1 4TJ       0.062700
     89 H35          3.7040    -3.8320    -0.7290 hc         1 4TJ       0.062700
     90 H36          5.0300    -3.9780     1.4680 h1         1 4TJ       0.072200
     91 H37          5.4490    -5.6120     1.0430 h1         1 4TJ       0.072200
     92 H42          5.0150    -2.0680     0.7770 ha         1 4TJ       0.192000
     93 H43          7.1120    -0.1860    -0.4560 ha         1 4TJ       0.168000
     94 H44          4.5720     0.2830     1.2060 ha         1 4TJ       0.187000
     95 H45          6.7340     2.0690    -0.0500 ha         1 4TJ       0.170000
     96 H46          4.2250     2.6450     1.6330 ha         1 4TJ       0.188000
     97 H47          7.3570    -0.9970    -2.3940 hc         1 4TJ       0.047867
     98 H48          8.3900    -2.1430    -3.2400 hc         1 4TJ       0.047867
     99 H49          6.6640    -2.4700    -3.0700 hc         1 4TJ       0.047867
    100 H50          9.2770    -2.7720     0.3770 hc         1 4TJ       0.047867
    101 H51          9.9320    -2.2900    -1.1890 hc         1 4TJ       0.047867
    102 H52          8.9180    -1.1760    -0.2860 hc         1 4TJ       0.047867
    103 H57          8.1450     3.3860     0.6420 hc         1 4TJ       0.048700
    104 H58          8.7700     5.0070     0.3840 hc         1 4TJ       0.048700
    105 H59          8.0050     4.5950     1.9210 hc         1 4TJ       0.048700
    106 H60          5.5860     4.9840    -1.6570 hc         1 4TJ       0.048700
    107 H61          7.3220     5.2920    -1.7360 hc         1 4TJ       0.048700
    108 H62          6.7320     3.6490    -1.5250 hc         1 4TJ       0.048700
    109 C36          3.4820     5.0140     2.3280 c3         1 4TJ       0.209800
    110 C42          3.8010     4.7620     3.7920 c3         1 4TJ      -0.115100
    111 C43          4.7900     7.7140     1.7970 ca         1 4TJ      -0.142000
    112 C45          7.1340     7.4730     0.2510 ca         1 4TJ       0.026000
    113 C46          6.6970     8.7210     0.7000 ca         1 4TJ      -0.209500
    114 C47          5.5410     8.8350     1.4610 ca         1 4TJ       0.001000
    115 S1           7.6180    10.1840     0.2330 s6         1 4TJ       1.249100
    116 O3           9.0340     9.7830     0.2970 o          1 4TJ      -0.679533
    117 O9           7.1680    10.4990    -1.1330 o          1 4TJ      -0.679533
    118 O4           7.2500    11.2150     1.2180 o          1 4TJ      -0.679533
    119 C44          7.0490    -6.4010    -1.0000 ca         1 4TJ      -0.014000
    120 C48          9.0180    -4.8950    -2.3420 ca         1 4TJ      -0.098000
    121 C51          8.9860    -6.2820    -2.4550 ca         1 4TJ      -0.012000
    122 C52          8.0100    -7.0190    -1.7930 ca         1 4TJ      -0.190500
    123 S2           7.9370    -8.7950    -2.0360 s6         1 4TJ       1.246100
    124 O8           7.2140    -8.9640    -3.3070 o          1 4TJ      -0.677533
    125 O7           9.3380    -9.2420    -2.0960 o          1 4TJ      -0.677533
    126 O5           7.2020    -9.3220    -0.8730 o          1 4TJ      -0.677533
    127 H38          2.8510     5.8940     2.2130 h1         1 4TJ       0.066700
    128 H39          2.9240     4.1850     1.8970 h1         1 4TJ       0.066700
    129 H40          4.3060     5.6170     4.2410 hc         1 4TJ       0.052367
    130 H41          2.8780     4.5880     4.3430 hc         1 4TJ       0.052367
    131 H53          4.4380     3.8860     3.9130 hc         1 4TJ       0.052367
    132 H54          3.8970     7.8200     2.4000 ha         1 4TJ       0.112000
    133 H55          8.0410     7.3830    -0.3340 ha         1 4TJ       0.143000
    134 H56          5.2190     9.8060     1.8110 ha         1 4TJ       0.148000
    135 H66          6.2940    -6.9840    -0.4890 ha         1 4TJ       0.150000
    136 H67          9.7800    -4.3250    -2.8590 ha         1 4TJ       0.112000
    137 H68          9.7330    -6.7850    -3.0550 ha         1 4TJ       0.146000
@<TRIPOS>BOND
     1     1     5 1   
     2     1    14 1   
     3     1    26 1   
     4     2     3 1   
     5     2    25 1   
     6     2    26 1   
     7     3     4 2   
     8     3    24 1   
     9     4     5 1   
    10     4    15 1   
    11     5    13 2   
    12     6    15 1   
    13     6    16 1   
    14     6    24 2   
    15     7     8 1   
    16     7    16 1   
    17     7    28 1   
    18     7    29 1   
    19     8    17 1   
    20     8    30 1   
    21     8    31 1   
    22     9    10 1   
    23     9    18 1   
    24     9    32 1   
    25     9    33 1   
    26    10    19 1   
    27    10    34 1   
    28    10    35 1   
    29    11    19 1   
    30    11    20 1   
    31    11    36 1   
    32    11    37 1   
    33    12    22 1   
    34    12    38 1   
    35    12    39 1   
    36    12    54 1   
    37    14    40 1   
    38    14    41 1   
    39    14    42 1   
    40    15    43 1   
    41    16    44 1   
    42    16    45 1   
    43    17    18 1   
    44    17    23 2   
    45    18    46 1   
    46    20    21 1   
    47    20    47 1   
    48    20    48 1   
    49    21    22 1   
    50    22    49 1   
    51    22    50 1   
    52    25    51 1   
    53    25    52 1   
    54    25    53 1   
    55    26    27 2   
    56    54    55 1   
    57    54    81 1   
    58    55    56 2   
    59    55    57 1   
    60    57    58 1   
    61    57    82 1   
    62    57    83 1   
    63    58    59 1   
    64    58    84 1   
    65    58    85 1   
    66    59    60 1   
    67    59    86 1   
    68    59    87 1   
    69    60    61 1   
    70    60    88 1   
    71    60    89 1   
    72    61    62 1   
    73    61    90 1   
    74    61    91 1   
    75    62    63 2   
    76    62    64 1   
    77    63    65 1   
    78    63    67 1   
    79    64    66 ar  
    80    64   119 ar  
    81    65    66 1   
    82    65    72 1   
    83    65    73 1   
    84    66   120 ar  
    85    67    68 2   
    86    67    92 1   
    87    68    69 1   
    88    68    93 1   
    89    69    70 2   
    90    69    94 1   
    91    70    71 1   
    92    70    95 1   
    93    71    74 2   
    94    71    96 1   
    95    72    97 1   
    96    72    98 1   
    97    72    99 1   
    98    73   100 1   
    99    73   101 1   
   100    73   102 1   
   101    74    75 1   
   102    74    76 1   
   103    75    77 1   
   104    75   109 1   
   105    76    78 1   
   106    76    79 1   
   107    76    80 1   
   108    77    78 ar  
   109    77   111 ar  
   110    78   112 ar  
   111    79   103 1   
   112    79   104 1   
   113    79   105 1   
   114    80   106 1   
   115    80   107 1   
   116    80   108 1   
   117   109   110 1   
   118   109   127 1   
   119   109   128 1   
   120   110   129 1   
   121   110   130 1   
   122   110   131 1   
   123   111   114 ar  
   124   111   132 1   
   125   112   113 ar  
   126   112   133 1   
   127   113   114 ar  
   128   113   115 1   
   129   114   134 1   
   130   115   116 1   
   131   115   117 1   
   132   115   118 1   
   133   119   122 ar  
   134   119   135 1   
   135   120   121 ar  
   136   120   136 1   
   137   121   122 ar  
   138   121   137 1   
   139   122   123 1   
   140   123   124 1   
   141   123   125 1   
   142   123   126 1   
@<TRIPOS>SUBSTRUCTURE
     1 4TJ         1 TEMP              0 ****  ****    0 ROOT
