@<TRIPOS>MOLECULE
4TJ
  137   142     1     0     0
SMALL
No Charge or Current Charge


@<TRIPOS>ATOM
      1 N1         -15.1510     4.8010    -1.3040 n          1 4TJ      -0.373400
      2 N3         -15.5340     3.6970     0.8140 n          1 4TJ      -0.358300
      3 C4         -14.6730     2.7010     0.4190 cc         1 4TJ       0.445900
      4 C5         -14.0580     2.7290    -0.7820 cd         1 4TJ      -0.354600
      5 C6         -14.2650     3.8080    -1.7470 c          1 4TJ       0.636600
      6 C8         -13.5070     0.9100     0.3600 cd         1 4TJ       0.464800
      7 C15        -11.6420    -0.3070     1.6050 c3         1 4TJ      -0.062400
      8 C17        -10.9780    -1.6800     1.8760 c3         1 4TJ      -0.159400
      9 C21         -7.2310    -1.6060     2.8120 c3         1 4TJ       0.105000
     10 C22         -6.7090    -3.0080     3.1960 c3         1 4TJ       0.139600
     11 C24         -5.8370    -5.0360     2.1900 c3         1 4TJ       0.160600
     12 C28         -2.8890    -4.6720    -1.6470 c3         1 4TJ       0.105000
     13 O6         -13.7140     3.8220    -2.8390 o          1 4TJ      -0.540000
     14 C1         -15.4460     5.9410    -2.2140 c3         1 4TJ       0.085300
     15 N7         -13.2870     1.5710    -0.8320 na         1 4TJ      -0.247500
     16 C14        -12.9140    -0.4240     0.7340 c3         1 4TJ      -0.110700
     17 C18         -9.7510    -1.5480     2.7830 c          1 4TJ       0.598100
     18 N20         -8.5380    -1.6430     2.1410 ns         1 4TJ      -0.502900
     19 O23         -6.4250    -3.7340     1.9840 os         1 4TJ      -0.458000
     20 C25         -5.5420    -5.6870     0.8170 c3         1 4TJ       0.163600
     21 O26         -4.4420    -4.9950     0.1890 os         1 4TJ      -0.456000
     22 C27         -4.0490    -5.5310    -1.0890 c3         1 4TJ       0.131600
     23 O19         -9.8410    -1.3900     3.9930 o          1 4TJ      -0.605100
     24 N9         -14.3450     1.5870     1.1330 nc         1 4TJ      -0.704000
     25 C3         -16.2180     3.6630     2.1320 c3         1 4TJ       0.101300
     26 C2         -15.8020     4.7700    -0.0550 c          1 4TJ       0.616000
     27 O2         -16.5870     5.6530     0.2680 o          1 4TJ      -0.552000
     28 H1         -11.9020     0.1720     2.5590 hc         1 4TJ       0.071200
     29 H2         -10.9180     0.3530     1.1060 hc         1 4TJ       0.071200
     30 H3         -11.7110    -2.3280     2.3720 hc         1 4TJ       0.054700
     31 H4         -10.6860    -2.1150     0.9110 hc         1 4TJ       0.054700
     32 H5          -7.3080    -0.9940     3.7200 h1         1 4TJ       0.062200
     33 H6          -6.5040    -1.1200     2.1480 h1         1 4TJ       0.062200
     34 H7          -5.7980    -2.8960     3.7980 h1         1 4TJ       0.032200
     35 H8          -7.4600    -3.5320     3.8010 h1         1 4TJ       0.032200
     36 H9          -4.9040    -4.9600     2.7640 h1         1 4TJ       0.031200
     37 H10         -6.5280    -5.6810     2.7480 h1         1 4TJ       0.031200
     38 H11         -2.6060    -5.0540    -2.6370 h1         1 4TJ       0.066200
     39 H12         -3.2380    -3.6400    -1.7770 h1         1 4TJ       0.066200
     40 H14        -16.4160     5.7790    -2.7020 h1         1 4TJ       0.057700
     41 H15        -15.4870     6.8810    -1.6470 h1         1 4TJ       0.057700
     42 H16        -14.6750     6.0530    -2.9870 h1         1 4TJ       0.057700
     43 H17        -12.6890     1.2500    -1.5870 hn         1 4TJ       0.374000
     44 H18        -13.6620    -1.0210     1.2700 hc         1 4TJ       0.057700
     45 H19        -12.6730    -0.9820    -0.1800 hc         1 4TJ       0.057700
     46 H20         -8.5580    -1.8000     1.1400 hn         1 4TJ       0.322500
     47 H21         -5.2840    -6.7420     0.9760 h1         1 4TJ       0.030200
     48 H22         -6.4420    -5.6470     0.1900 h1         1 4TJ       0.030200
     49 H23         -4.8880    -5.5020    -1.7960 h1         1 4TJ       0.034200
     50 H24         -3.7200    -6.5730    -0.9900 h1         1 4TJ       0.034200
     51 H26        -16.0730     4.6190     2.6510 h1         1 4TJ       0.059700
     52 H27        -17.2930     3.4980     1.9830 h1         1 4TJ       0.059700
     53 H28        -15.8230     2.8620     2.7690 h1         1 4TJ       0.059700
     54 N2          -1.7030    -4.6660    -0.7790 ns         1 4TJ      -0.501900
     55 C7          -0.8000    -5.6980    -0.6780 c          1 4TJ       0.597100
     56 O1          -0.8840    -6.7090    -1.3620 o          1 4TJ      -0.604100
     57 C9           0.2940    -5.5040     0.3780 c3         1 4TJ      -0.157400
     58 C10          1.6720    -5.2130    -0.2620 c3         1 4TJ      -0.068400
     59 C11          2.7870    -5.0180     0.7890 c3         1 4TJ      -0.073400
     60 C12          4.1710    -4.7340     0.1670 c3         1 4TJ      -0.098400
     61 C13          5.2740    -4.5490     1.2310 c3         1 4TJ       0.056600
     62 N4           6.6050    -4.2830     0.6570 nh         1 4TJ      -0.137500
     63 C16          7.1230    -3.0260     0.3430 ce         1 4TJ       0.400600
     64 C19          7.5240    -5.2900     0.3410 ca         1 4TJ      -0.083200
     65 C20          8.5580    -3.1860    -0.2180 c5         1 4TJ      -0.072000
     66 C26          8.6780    -4.7090    -0.1690 ca         1 4TJ      -0.116300
     67 C23          6.3650    -1.7620     0.4800 ce         1 4TJ      -0.483600
     68 C29          6.8060    -0.4970     0.2480 cf         1 4TJ       0.045000
     69 C30          5.9660     0.6780     0.4140 cf         1 4TJ      -0.373000
     70 C31          6.3690     1.9570     0.1990 ce         1 4TJ       0.047000
     71 C32          5.4820     3.1150     0.3780 ce         1 4TJ      -0.400000
     72 C33          8.7030    -2.6840    -1.6800 c3         1 4TJ      -0.071100
     73 C34          9.6440    -2.5350     0.6790 c3         1 4TJ      -0.071100
     74 C35          5.7560     4.4340     0.2110 c2         1 4TJ       0.266800
     75 N5           4.8870     5.5110     0.3790 nh         1 4TJ      -0.597200
     76 C37          7.1470     5.0080    -0.2290 c5         1 4TJ       0.010500
     77 C38          5.5160     6.7300     0.1410 ca         1 4TJ       0.229000
     78 C39          6.8260     6.4980    -0.2200 ca         1 4TJ      -0.158300
     79 C40          8.2860     4.7220     0.7880 c3         1 4TJ      -0.072100
     80 C41          7.5700     4.5800    -1.6620 c3         1 4TJ      -0.072100
     81 H13         -1.5710    -3.8810    -0.1520 hn         1 4TJ       0.318500
     82 H25          0.0330    -4.6660     1.0360 hc         1 4TJ       0.056200
     83 H29          0.3740    -6.4240     0.9690 hc         1 4TJ       0.056200
     84 H30          1.9440    -6.0410    -0.9290 hc         1 4TJ       0.059200
     85 H31          1.5990    -4.3120    -0.8850 hc         1 4TJ       0.059200
     86 H32          2.5150    -4.1870     1.4530 hc         1 4TJ       0.039700
     87 H33          2.8530    -5.9180     1.4140 hc         1 4TJ       0.039700
     88 H34          4.4490    -5.5620    -0.4970 hc         1 4TJ       0.062700
     89 H35          4.1130    -3.8310    -0.4540 hc         1 4TJ       0.062700
     90 H36          4.9950    -3.7330     1.9090 h1         1 4TJ       0.072200
     91 H37          5.3220    -5.4490     1.8560 h1         1 4TJ       0.072200
     92 H42          5.3310    -1.8660     0.8010 ha         1 4TJ       0.192000
     93 H43          7.8330    -0.3220    -0.0770 ha         1 4TJ       0.168000
     94 H44          4.9380     0.5060     0.7360 ha         1 4TJ       0.187000
     95 H45          7.3960     2.1180    -0.1230 ha         1 4TJ       0.170000
     96 H46          4.4750     2.8450     0.6850 ha         1 4TJ       0.188000
     97 H47          8.5850    -1.5990    -1.7620 hc         1 4TJ       0.047867
     98 H48          9.6890    -2.9360    -2.0900 hc         1 4TJ       0.047867
     99 H49          7.9500    -3.1470    -2.3290 hc         1 4TJ       0.047867
    100 H50          9.5580    -2.8880     1.7140 hc         1 4TJ       0.047867
    101 H51         10.6520    -2.7900     0.3290 hc         1 4TJ       0.047867
    102 H52          9.5740    -1.4430     0.6980 hc         1 4TJ       0.047867
    103 H57          8.5540     3.6640     0.8440 hc         1 4TJ       0.048700
    104 H58          9.2000     5.2690     0.5250 hc         1 4TJ       0.048700
    105 H59          7.9930     5.0400     1.7960 hc         1 4TJ       0.048700
    106 H60          6.7740     4.8010    -2.3830 hc         1 4TJ       0.048700
    107 H61          8.4670     5.1200    -1.9880 hc         1 4TJ       0.048700
    108 H62          7.7930     3.5130    -1.7390 hc         1 4TJ       0.048700
    109 C36          3.4940     5.4000     0.8610 c3         1 4TJ       0.209800
    110 C42          3.3960     5.2090     2.3850 c3         1 4TJ      -0.115100
    111 C43          5.0000     8.0310     0.2320 ca         1 4TJ      -0.142000
    112 C45          7.6880     7.5700    -0.5150 ca         1 4TJ       0.026000
    113 C46          7.1970     8.8920    -0.4320 ca         1 4TJ      -0.209500
    114 C47          5.8490     9.1160    -0.0610 ca         1 4TJ       0.001000
    115 S1           8.3070    10.3150    -0.8280 s6         1 4TJ       1.249100
    116 O3           9.6250     9.8030    -0.4210 o          1 4TJ      -0.679533
    117 O9           8.0950    10.4460    -2.2770 o          1 4TJ      -0.679533
    118 O4           7.7400    11.3910    -0.0010 o          1 4TJ      -0.679533
    119 C44          7.3960    -6.6850     0.4700 ca         1 4TJ      -0.014000
    120 C48          9.7610    -5.5080    -0.5670 ca         1 4TJ      -0.098000
    121 C51          9.6570    -6.9080    -0.4400 ca         1 4TJ      -0.012000
    122 C52          8.4820    -7.5050     0.0820 ca         1 4TJ      -0.190500
    123 S2           8.3620    -9.3470     0.2270 s6         1 4TJ       1.246100
    124 O8           7.8600    -9.7060    -1.1080 o          1 4TJ      -0.677533
    125 O7           9.7550    -9.7270     0.5060 o          1 4TJ      -0.677533
    126 O5           7.4070    -9.5120     1.3340 o          1 4TJ      -0.677533
    127 H38          2.9250     6.2990     0.5900 h1         1 4TJ       0.066700
    128 H39          2.9910     4.5660     0.3540 h1         1 4TJ       0.066700
    129 H40          3.8500     6.0590     2.9070 hc         1 4TJ       0.052367
    130 H41          2.3470     5.1350     2.6920 hc         1 4TJ       0.052367
    131 H53          3.9130     4.2940     2.6970 hc         1 4TJ       0.052367
    132 H54          3.9700     8.2120     0.5210 ha         1 4TJ       0.112000
    133 H55          8.7190     7.3780    -0.8040 ha         1 4TJ       0.143000
    134 H56          5.4570    10.1300    -0.0010 ha         1 4TJ       0.148000
    135 H66          6.4820    -7.1270     0.8580 ha         1 4TJ       0.150000
    136 H67         10.6660    -5.0600    -0.9680 ha         1 4TJ       0.112000
    137 H68         10.4940    -7.5320    -0.7510 ha         1 4TJ       0.146000
@<TRIPOS>BOND
     1     1     5 1   
     2     1    14 1   
     3     1    26 1   
     4     2     3 1   
     5     2    25 1   
     6     2    26 1   
     7     3     4 2   
     8     3    24 1   
     9     4     5 1   
    10     4    15 1   
    11     5    13 2   
    12     6    15 1   
    13     6    16 1   
    14     6    24 2   
    15     7     8 1   
    16     7    16 1   
    17     7    28 1   
    18     7    29 1   
    19     8    17 1   
    20     8    30 1   
    21     8    31 1   
    22     9    10 1   
    23     9    18 1   
    24     9    32 1   
    25     9    33 1   
    26    10    19 1   
    27    10    34 1   
    28    10    35 1   
    29    11    19 1   
    30    11    20 1   
    31    11    36 1   
    32    11    37 1   
    33    12    22 1   
    34    12    38 1   
    35    12    39 1   
    36    12    54 1   
    37    14    40 1   
    38    14    41 1   
    39    14    42 1   
    40    15    43 1   
    41    16    44 1   
    42    16    45 1   
    43    17    18 1   
    44    17    23 2   
    45    18    46 1   
    46    20    21 1   
    47    20    47 1   
    48    20    48 1   
    49    21    22 1   
    50    22    49 1   
    51    22    50 1   
    52    25    51 1   
    53    25    52 1   
    54    25    53 1   
    55    26    27 2   
    56    54    55 1   
    57    54    81 1   
    58    55    56 2   
    59    55    57 1   
    60    57    58 1   
    61    57    82 1   
    62    57    83 1   
    63    58    59 1   
    64    58    84 1   
    65    58    85 1   
    66    59    60 1   
    67    59    86 1   
    68    59    87 1   
    69    60    61 1   
    70    60    88 1   
    71    60    89 1   
    72    61    62 1   
    73    61    90 1   
    74    61    91 1   
    75    62    63 2   
    76    62    64 1   
    77    63    65 1   
    78    63    67 1   
    79    64    66 ar  
    80    64   119 ar  
    81    65    66 1   
    82    65    72 1   
    83    65    73 1   
    84    66   120 ar  
    85    67    68 2   
    86    67    92 1   
    87    68    69 1   
    88    68    93 1   
    89    69    70 2   
    90    69    94 1   
    91    70    71 1   
    92    70    95 1   
    93    71    74 2   
    94    71    96 1   
    95    72    97 1   
    96    72    98 1   
    97    72    99 1   
    98    73   100 1   
    99    73   101 1   
   100    73   102 1   
   101    74    75 1   
   102    74    76 1   
   103    75    77 1   
   104    75   109 1   
   105    76    78 1   
   106    76    79 1   
   107    76    80 1   
   108    77    78 ar  
   109    77   111 ar  
   110    78   112 ar  
   111    79   103 1   
   112    79   104 1   
   113    79   105 1   
   114    80   106 1   
   115    80   107 1   
   116    80   108 1   
   117   109   110 1   
   118   109   127 1   
   119   109   128 1   
   120   110   129 1   
   121   110   130 1   
   122   110   131 1   
   123   111   114 ar  
   124   111   132 1   
   125   112   113 ar  
   126   112   133 1   
   127   113   114 ar  
   128   113   115 1   
   129   114   134 1   
   130   115   116 1   
   131   115   117 1   
   132   115   118 1   
   133   119   122 ar  
   134   119   135 1   
   135   120   121 ar  
   136   120   136 1   
   137   121   122 ar  
   138   121   137 1   
   139   122   123 1   
   140   123   124 1   
   141   123   125 1   
   142   123   126 1   
@<TRIPOS>SUBSTRUCTURE
     1 4TJ         1 TEMP              0 ****  ****    0 ROOT
