@<TRIPOS>MOLECULE
4TK
   36    36     1     0     0
SMALL
No Charge or Current Charge


@<TRIPOS>ATOM
      1 CA           1.4810     1.0970     0.2980 c3         1 4TK       0.090000
      2 N            2.4550     0.0790    -0.1460 ns         1 4TK      -0.499900
      3 CAO          2.9410    -0.9440     0.6390 c          1 4TK       0.608100
      4 OAE          2.6050    -1.0520     1.8110 o          1 4TK      -0.600100
      5 CAS          3.9380    -1.9420    -0.0360 c3         1 4TK      -0.117000
      6 CAA          5.2810    -1.9110     0.7440 c3         1 4TK      -0.082767
      7 CAB          3.3300    -3.3690     0.0290 c3         1 4TK      -0.082767
      8 CAC          4.2250    -1.5940    -1.5300 c3         1 4TK      -0.082767
      9 C            1.5440     2.3650    -0.6070 c          1 4TK       0.604100
     10 O            2.2230     2.4230    -1.6280 o          1 4TK      -0.558100
     11 NAL          0.7440     3.4270    -0.1890 ns         1 4TK      -0.371400
     12 OAF          0.8870     4.7460    -0.7720 oh         1 4TK      -0.423100
     13 BrG         -4.2890    -1.3220     0.4860 br         1 4TK      -0.090100
     14 CAQ          0.0710     0.5090     0.3420 ca         1 4TK      -0.101300
     15 CAJ         -0.6200     0.4120     1.5660 ca         1 4TK      -0.092500
     16 CAH         -1.9160    -0.1310     1.6090 ca         1 4TK      -0.085500
     17 CAP         -2.5270    -0.5820     0.4270 ca         1 4TK      -0.009900
     18 CAI         -1.8450    -0.4930    -0.7970 ca         1 4TK      -0.085500
     19 CAK         -0.5490     0.0500    -0.8400 ca         1 4TK      -0.092500
     20 H1           1.7660     1.4260     1.3060 h1         1 4TK       0.065700
     21 H2           2.7950     0.1290    -1.0980 hn         1 4TK       0.329500
     22 H3           5.1360    -2.1990     1.7920 hc         1 4TK       0.041922
     23 H4           6.0090    -2.6030     0.3040 hc         1 4TK       0.041922
     24 H5           5.7170    -0.9040     0.7280 hc         1 4TK       0.041922
     25 H6           3.1560    -3.6780     1.0670 hc         1 4TK       0.041922
     26 H7           2.3690    -3.4070    -0.4990 hc         1 4TK       0.041922
     27 H8           4.0000    -4.1050    -0.4320 hc         1 4TK       0.041922
     28 H9           4.9260    -2.3160    -1.9680 hc         1 4TK       0.041922
     29 H10          3.3060    -1.6230    -2.1290 hc         1 4TK       0.041922
     30 H11          4.6750    -0.5980    -1.6280 hc         1 4TK       0.041922
     31 H12          0.2930     3.3830     0.7240 hn         1 4TK       0.334500
     32 H13         -0.0380     4.9980    -1.0050 ho         1 4TK       0.444000
     33 H14         -0.1540     0.7520     2.4890 ha         1 4TK       0.127000
     34 H15         -2.4450    -0.2040     2.5570 ha         1 4TK       0.133500
     35 H16         -2.3170    -0.8450    -1.7110 ha         1 4TK       0.133500
     36 H17         -0.0270     0.1110    -1.7930 ha         1 4TK       0.127000
@<TRIPOS>BOND
     1     1     2 1   
     2     1     9 1   
     3     1    14 1   
     4     1    20 1   
     5     2     3 1   
     6     2    21 1   
     7     3     4 2   
     8     3     5 1   
     9     5     6 1   
    10     5     7 1   
    11     5     8 1   
    12     6    22 1   
    13     6    23 1   
    14     6    24 1   
    15     7    25 1   
    16     7    26 1   
    17     7    27 1   
    18     8    28 1   
    19     8    29 1   
    20     8    30 1   
    21     9    10 2   
    22     9    11 1   
    23    11    12 1   
    24    11    31 1   
    25    12    32 1   
    26    13    17 1   
    27    14    15 ar  
    28    14    19 ar  
    29    15    16 ar  
    30    15    33 1   
    31    16    17 ar  
    32    16    34 1   
    33    17    18 ar  
    34    18    19 ar  
    35    18    35 1   
    36    19    36 1   
@<TRIPOS>SUBSTRUCTURE
     1 4TK         1 TEMP              0 ****  ****    0 ROOT
