@<TRIPOS>MOLECULE
4TK
   36    36     1     0     0
SMALL
abcg2


@<TRIPOS>ATOM
      1 CA           1.1520     0.5600     0.6480 c3         1 4TK       0.090000
      2 N            2.0080    -0.5340     0.2770 ns         1 4TK      -0.499900
      3 CAO          3.3460    -0.4330     0.3930 c          1 4TK       0.608100
      4 OAE          3.8520     0.5800     0.8530 o          1 4TK      -0.600100
      5 CAS          4.1610    -1.6210    -0.1180 c3         1 4TK      -0.117000
      6 CAA          5.6240    -1.4430     0.2800 c3         1 4TK      -0.082767
      7 CAB          3.6390    -2.9390     0.4650 c3         1 4TK      -0.082767
      8 CAC          4.0490    -1.6490    -1.6500 c3         1 4TK      -0.082767
      9 C            1.5420     1.8220    -0.1370 c          1 4TK       0.604100
     10 O            1.8330     1.7920    -1.3140 o          1 4TK      -0.558100
     11 NAL          1.4070     2.9430     0.5910 ns         1 4TK      -0.371400
     12 OAF          1.7870     4.1380     0.0590 oh         1 4TK      -0.423100
     13 BRG         -4.7650    -0.6620    -0.6090 br         1 4TK      -0.090100
     14 CAQ         -0.2900     0.2420     0.3370 ca         1 4TK      -0.101300
     15 CAJ         -1.2650     0.4130     1.3110 ca         1 4TK      -0.092500
     16 CAH         -2.6010     0.1510     1.0390 ca         1 4TK      -0.085500
     17 CAP         -2.9540    -0.2930    -0.2260 ca         1 4TK      -0.009900
     18 CAI         -1.9980    -0.4710    -1.2150 ca         1 4TK      -0.085500
     19 CAK         -0.6690    -0.1970    -0.9290 ca         1 4TK      -0.092500
     20 H1           1.2400     0.7550     1.7220 h1         1 4TK       0.065700
     21 H2           1.5850    -1.3790    -0.0680 hn         1 4TK       0.329500
     22 H3           5.7470    -1.4020     1.3630 hc         1 4TK       0.041922
     23 H4           6.2040    -2.2910    -0.0870 hc         1 4TK       0.041922
     24 H5           6.0540    -0.5350    -0.1430 hc         1 4TK       0.041922
     25 H6           3.6790    -2.9410     1.5550 hc         1 4TK       0.041922
     26 H7           2.6140    -3.1660     0.1660 hc         1 4TK       0.041922
     27 H8           4.2590    -3.7630     0.1070 hc         1 4TK       0.041922
     28 H9           4.6740    -2.4500    -2.0480 hc         1 4TK       0.041922
     29 H10          3.0280    -1.8290    -1.9890 hc         1 4TK       0.041922
     30 H11          4.3860    -0.7090    -2.0920 hc         1 4TK       0.041922
     31 H12          1.3850     2.9240     1.6010 hn         1 4TK       0.334500
     32 H13          0.9730     4.5710    -0.2300 ho         1 4TK       0.444000
     33 H14         -0.9870     0.7510     2.3010 ha         1 4TK       0.127000
     34 H15         -3.3440     0.2880     1.8130 ha         1 4TK       0.133500
     35 H16         -2.2740    -0.8140    -2.2030 ha         1 4TK       0.133500
     36 H17          0.0680    -0.3240    -1.7120 ha         1 4TK       0.127000
@<TRIPOS>BOND
     1     1     2 1   
     2     1     9 1   
     3     1    14 1   
     4     1    20 1   
     5     2     3 1   
     6     2    21 1   
     7     3     4 2   
     8     3     5 1   
     9     5     6 1   
    10     5     7 1   
    11     5     8 1   
    12     6    22 1   
    13     6    23 1   
    14     6    24 1   
    15     7    25 1   
    16     7    26 1   
    17     7    27 1   
    18     8    28 1   
    19     8    29 1   
    20     8    30 1   
    21     9    10 2   
    22     9    11 1   
    23    11    12 1   
    24    11    31 1   
    25    12    32 1   
    26    13    17 1   
    27    14    15 ar  
    28    14    19 ar  
    29    15    16 ar  
    30    15    33 1   
    31    16    17 ar  
    32    16    34 1   
    33    17    18 ar  
    34    18    19 ar  
    35    18    35 1   
    36    19    36 1   
@<TRIPOS>SUBSTRUCTURE
     1 4TK         1 TEMP              0 ****  ****    0 ROOT
