@<TRIPOS>MOLECULE
4TL
   46    47     1     0     0
SMALL
No Charge or Current Charge


@<TRIPOS>ATOM
      1 CAA          6.5550     1.8370     0.4620 c3         1 4TL      -0.082767
      2 CBA          5.2160     2.1100    -0.2760 c3         1 4TL      -0.117000
      3 CAB          4.2790     2.9140     0.6770 c3         1 4TL      -0.082767
      4 CAC          5.4840     2.9680    -1.5430 c3         1 4TL      -0.082767
      5 CAS          4.6020     0.7420    -0.7200 c          1 4TL       0.607100
      6 OAE          5.1890    -0.0250    -1.4720 o          1 4TL      -0.599100
      7 N            3.3540     0.4270    -0.2270 ns         1 4TL      -0.499900
      8 CA           2.6250    -0.8210    -0.5280 c3         1 4TL       0.091000
      9 C            3.1330    -2.0170     0.3390 c          1 4TL       0.605100
     10 O            3.9110    -1.8890     1.2810 o          1 4TL      -0.557100
     11 NAP          2.6000    -3.2550    -0.0130 ns         1 4TL      -0.372400
     12 OAF          3.1500    -4.4860     0.5210 oh         1 4TL      -0.423100
     13 CAY          1.1240    -0.5980    -0.3570 ca         1 4TL      -0.103300
     14 CAM          0.2750    -0.5970    -1.4790 ca         1 4TL      -0.092000
     15 CAK         -1.1060    -0.3890    -1.3260 ca         1 4TL      -0.095000
     16 CAL          0.5720    -0.3810     0.9200 ca         1 4TL      -0.092000
     17 CAJ         -0.8090    -0.1720     1.0720 ca         1 4TL      -0.095000
     18 CAV         -1.6790    -0.1730    -0.0470 cp         1 4TL      -0.034000
     19 CAW         -3.1510     0.0500     0.1150 cp         1 4TL       0.007000
     20 CAN         -3.6540     0.9380     1.1010 ca         1 4TL      -0.139000
     21 CAT         -5.0350     1.1460     1.2520 ca         1 4TL       0.162000
     22 FAG         -5.4780     2.0040     2.2000 f          1 4TL      -0.154000
     23 CAX         -5.9480     0.4740     0.4230 ca         1 4TL       0.091000
     24 FAI         -7.2800     0.6750     0.5700 f          1 4TL      -0.140000
     25 CAU         -5.4700    -0.4100    -0.5590 ca         1 4TL       0.162000
     26 FAH         -6.3350    -1.0690    -1.3630 f          1 4TL      -0.154000
     27 CAO         -4.0890    -0.6190    -0.7120 ca         1 4TL      -0.139000
     28 H1           6.3890     1.2130     1.3490 hc         1 4TL       0.041700
     29 H2           7.2660     1.3140    -0.1900 hc         1 4TL       0.041700
     30 H3           7.0240     2.7730     0.7880 hc         1 4TL       0.041700
     31 H4           4.7430     3.8650     0.9650 hc         1 4TL       0.041700
     32 H5           3.3230     3.1480     0.1930 hc         1 4TL       0.041700
     33 H6           4.0760     2.3560     1.6000 hc         1 4TL       0.041700
     34 H7           6.1800     2.4620    -2.2230 hc         1 4TL       0.041700
     35 H8           4.5520     3.1550    -2.0910 hc         1 4TL       0.041700
     36 H9           5.9220     3.9380    -1.2760 hc         1 4TL       0.041700
     37 H10          2.9200     1.1010     0.3890 hn         1 4TL       0.328500
     38 H11          2.8220    -1.0900    -1.5740 h1         1 4TL       0.064700
     39 H12          2.0550    -3.3400    -0.8700 hn         1 4TL       0.334500
     40 H13          2.3560    -4.9720     0.8480 ho         1 4TL       0.444000
     41 H14          0.6830    -0.7520    -2.4760 ha         1 4TL       0.127000
     42 H15         -1.7360    -0.3800    -2.2120 ha         1 4TL       0.121500
     43 H16          1.2110    -0.3770     1.8020 ha         1 4TL       0.127000
     44 H17         -1.2100    -0.0230     2.0710 ha         1 4TL       0.121500
     45 H18         -2.9690     1.4820     1.7460 ha         1 4TL       0.142500
     46 H19         -3.7470    -1.3180    -1.4700 ha         1 4TL       0.142500
@<TRIPOS>BOND
     1     1     2 1   
     2     1    28 1   
     3     1    29 1   
     4     1    30 1   
     5     2     3 1   
     6     2     4 1   
     7     2     5 1   
     8     3    31 1   
     9     3    32 1   
    10     3    33 1   
    11     4    34 1   
    12     4    35 1   
    13     4    36 1   
    14     5     6 2   
    15     5     7 1   
    16     7     8 1   
    17     7    37 1   
    18     8     9 1   
    19     8    13 1   
    20     8    38 1   
    21     9    10 2   
    22     9    11 1   
    23    11    12 1   
    24    11    39 1   
    25    12    40 1   
    26    13    14 ar  
    27    13    16 ar  
    28    14    15 ar  
    29    14    41 1   
    30    15    18 ar  
    31    15    42 1   
    32    16    17 ar  
    33    16    43 1   
    34    17    18 ar  
    35    17    44 1   
    36    18    19 1   
    37    19    20 ar  
    38    19    27 ar  
    39    20    21 ar  
    40    20    45 1   
    41    21    22 1   
    42    21    23 ar  
    43    23    24 1   
    44    23    25 ar  
    45    25    26 1   
    46    25    27 ar  
    47    27    46 1   
@<TRIPOS>SUBSTRUCTURE
     1 4TL         1 TEMP              0 ****  ****    0 ROOT
