@<TRIPOS>MOLECULE
4TL
   46    47     1     0     0
SMALL
abcg2


@<TRIPOS>ATOM
      1 CAA          6.7480     1.7620    -0.1020 c3         1 4TL      -0.082767
      2 CBA          5.2290     1.8910    -0.0510 c3         1 4TL      -0.117000
      3 CAB          4.8020     2.2820     1.3710 c3         1 4TL      -0.082767
      4 CAC          4.7780     2.9650    -1.0480 c3         1 4TL      -0.082767
      5 CAS          4.5880     0.5480    -0.4040 c          1 4TL       0.607100
      6 OAE          5.2300    -0.4620    -0.6550 o          1 4TL      -0.599100
      7 N            3.2410     0.5240    -0.4100 ns         1 4TL      -0.499900
      8 CA           2.5160    -0.6910    -0.6720 c3         1 4TL       0.091000
      9 C            2.9590    -1.7890     0.3060 c          1 4TL       0.605100
     10 O            3.1370    -1.5780     1.4860 o          1 4TL      -0.557100
     11 NAP          3.0090    -3.0010    -0.2720 ns         1 4TL      -0.372400
     12 OAF          3.4610    -4.0670     0.4460 oh         1 4TL      -0.423100
     13 CAY          1.0340    -0.4700    -0.4920 ca         1 4TL      -0.103300
     14 CAM          0.1420    -0.8640    -1.4820 ca         1 4TL      -0.092000
     15 CAK         -1.2230    -0.6840    -1.3180 ca         1 4TL      -0.095000
     16 CAL          0.5320     0.1060     0.6720 ca         1 4TL      -0.092000
     17 CAJ         -0.8300     0.2920     0.8330 ca         1 4TL      -0.095000
     18 CAV         -1.7290    -0.1000    -0.1580 cp         1 4TL      -0.034000
     19 CAW         -3.1800     0.1020     0.0180 cp         1 4TL       0.007000
     20 CAN         -3.6600     1.2420     0.6630 ca         1 4TL      -0.139000
     21 CAT         -5.0180     1.4140     0.8230 ca         1 4TL       0.162000
     22 FAG         -5.4920     2.5030     1.4310 f          1 4TL      -0.154000
     23 CAX         -5.9230     0.4790     0.3540 ca         1 4TL       0.091000
     24 FAI         -7.2320     0.6590     0.5150 f          1 4TL      -0.140000
     25 CAU         -5.4380    -0.6470    -0.2850 ca         1 4TL       0.162000
     26 FAH         -6.3140    -1.5510    -0.7250 f          1 4TL      -0.154000
     27 CAO         -4.0850    -0.8470    -0.4570 ca         1 4TL      -0.139000
     28 H1           7.1190     1.0230     0.6080 hc         1 4TL       0.041700
     29 H2           7.1010     1.4840    -1.0960 hc         1 4TL       0.041700
     30 H3           7.2010     2.7220     0.1520 hc         1 4TL       0.041700
     31 H4           5.3160     3.1960     1.6700 hc         1 4TL       0.041700
     32 H5           3.7300     2.4690     1.4540 hc         1 4TL       0.041700
     33 H6           5.0610     1.5030     2.0910 hc         1 4TL       0.041700
     34 H7           5.0590     2.7030    -2.0700 hc         1 4TL       0.041700
     35 H8           3.7010     3.1370    -1.0300 hc         1 4TL       0.041700
     36 H9           5.2570     3.9140    -0.8040 hc         1 4TL       0.041700
     37 H10          2.7170     1.3630    -0.2300 hn         1 4TL       0.328500
     38 H11          2.6970    -1.0210    -1.7010 h1         1 4TL       0.064700
     39 H12          3.0860    -3.1120    -1.2740 hn         1 4TL       0.334500
     40 H13          2.6740    -4.5550     0.7230 ho         1 4TL       0.444000
     41 H14          0.5120    -1.3040    -2.3990 ha         1 4TL       0.127000
     42 H15         -1.8910    -0.9790    -2.1170 ha         1 4TL       0.121500
     43 H16          1.2010     0.4010     1.4710 ha         1 4TL       0.127000
     44 H17         -1.1940     0.7250     1.7560 ha         1 4TL       0.121500
     45 H18         -2.9890     2.0100     1.0240 ha         1 4TL       0.142500
     46 H19         -3.7460    -1.7560    -0.9360 ha         1 4TL       0.142500
@<TRIPOS>BOND
     1     1     2 1   
     2     1    28 1   
     3     1    29 1   
     4     1    30 1   
     5     2     3 1   
     6     2     4 1   
     7     2     5 1   
     8     3    31 1   
     9     3    32 1   
    10     3    33 1   
    11     4    34 1   
    12     4    35 1   
    13     4    36 1   
    14     5     6 2   
    15     5     7 1   
    16     7     8 1   
    17     7    37 1   
    18     8     9 1   
    19     8    13 1   
    20     8    38 1   
    21     9    10 2   
    22     9    11 1   
    23    11    12 1   
    24    11    39 1   
    25    12    40 1   
    26    13    14 ar  
    27    13    16 ar  
    28    14    15 ar  
    29    14    41 1   
    30    15    18 ar  
    31    15    42 1   
    32    16    17 ar  
    33    16    43 1   
    34    17    18 ar  
    35    17    44 1   
    36    18    19 1   
    37    19    20 ar  
    38    19    27 ar  
    39    20    21 ar  
    40    20    45 1   
    41    21    22 1   
    42    21    23 ar  
    43    23    24 1   
    44    23    25 ar  
    45    25    26 1   
    46    25    27 ar  
    47    27    46 1   
@<TRIPOS>SUBSTRUCTURE
     1 4TL         1 TEMP              0 ****  ****    0 ROOT
