@<TRIPOS>MOLECULE
4TM
   43    44     1     0     0
SMALL
No Charge or Current Charge


@<TRIPOS>ATOM
      1 CAA         -3.4120    -2.7890     0.9710 c3         1 4TM      -0.082100
      2 CAW         -4.3300    -2.0560    -0.0550 c3         1 4TM      -0.118000
      3 CAB         -4.6170    -3.0220    -1.2370 c3         1 4TM      -0.082100
      4 CAC         -5.6620    -1.6860     0.6520 c3         1 4TM      -0.082100
      5 CAR         -3.6850    -0.7490    -0.6210 c          1 4TM       0.607100
      6 OAE         -4.2560    -0.0420    -1.4420 o          1 4TM      -0.599100
      7 N           -2.4310    -0.4180    -0.1570 ns         1 4TM      -0.498900
      8 CA          -1.6740     0.7790    -0.5700 c3         1 4TM       0.093000
      9 C           -2.1570     2.0620     0.1790 c          1 4TM       0.607100
     10 O           -2.9420     2.0420     1.1240 o          1 4TM      -0.559100
     11 NAN         -1.5940     3.2500    -0.2830 ns         1 4TM      -0.375400
     12 OAF         -2.1170     4.5370     0.1280 oh         1 4TM      -0.423100
     13 CAU         -0.1790     0.5390    -0.3730 ca         1 4TM      -0.116300
     14 CAL          0.3670     0.4310     0.9190 ca         1 4TM      -0.091000
     15 CAJ          1.7430     0.2060     1.0970 ca         1 4TM      -0.104500
     16 CAK          0.6730     0.4120    -1.4830 ca         1 4TM      -0.091000
     17 CAI          2.0490     0.1880    -1.3050 ca         1 4TM      -0.104500
     18 CAS          2.6140     0.0810    -0.0130 ca         1 4TM       0.007000
     19 CAT          4.0670    -0.1560     0.1450 cc         1 4TM      -0.063000
     20 CAH          5.0350    -0.3000    -0.8900 cc         1 4TM      -0.118000
     21 CAG          6.3120    -0.5120    -0.4430 cd         1 4TM      -0.248000
     22 SAP          6.3770    -0.5440     1.3230 ss         1 4TM       0.222000
     23 CAM          4.6290    -0.2620     1.4000 cd         1 4TM      -0.238000
     24 H1          -3.8970    -3.7000     1.3450 hc         1 4TM       0.041367
     25 H2          -2.4610    -3.0890     0.5120 hc         1 4TM       0.041367
     26 H3          -3.1960    -2.1530     1.8390 hc         1 4TM       0.041367
     27 H4          -5.3020    -2.5650    -1.9630 hc         1 4TM       0.041367
     28 H5          -3.6900    -3.2790    -1.7630 hc         1 4TM       0.041367
     29 H6          -5.0760    -3.9530    -0.8830 hc         1 4TM       0.041367
     30 H7          -5.4830    -0.9870     1.4780 hc         1 4TM       0.041367
     31 H8          -6.3620    -1.2110    -0.0460 hc         1 4TM       0.041367
     32 H9          -6.1520    -2.5780     1.0620 hc         1 4TM       0.041367
     33 H10         -2.0120    -1.0420     0.5190 hn         1 4TM       0.328500
     34 H11         -1.8620     0.9530    -1.6380 h1         1 4TM       0.061700
     35 H12         -1.0430     3.2410    -1.1410 hn         1 4TM       0.334500
     36 H13         -1.3140     5.0340     0.4140 ho         1 4TM       0.443000
     37 H14         -0.2740     0.5210     1.7940 ha         1 4TM       0.123000
     38 H15          2.1120     0.1320     2.1140 ha         1 4TM       0.117500
     39 H16          0.2720     0.4850    -2.4920 ha         1 4TM       0.123000
     40 H17          2.6680     0.0970    -2.1910 ha         1 4TM       0.117500
     41 H18          4.7880    -0.2480    -1.9450 ha         1 4TM       0.135000
     42 H19          7.2150    -0.6510    -1.0250 h4         1 4TM       0.152000
     43 H20          4.1640    -0.1980     2.3730 h4         1 4TM       0.151000
@<TRIPOS>BOND
     1     1     2 1   
     2     1    24 1   
     3     1    25 1   
     4     1    26 1   
     5     2     3 1   
     6     2     4 1   
     7     2     5 1   
     8     3    27 1   
     9     3    28 1   
    10     3    29 1   
    11     4    30 1   
    12     4    31 1   
    13     4    32 1   
    14     5     6 2   
    15     5     7 1   
    16     7     8 1   
    17     7    33 1   
    18     8     9 1   
    19     8    13 1   
    20     8    34 1   
    21     9    10 2   
    22     9    11 1   
    23    11    12 1   
    24    11    35 1   
    25    12    36 1   
    26    13    14 ar  
    27    13    16 ar  
    28    14    15 ar  
    29    14    37 1   
    30    15    18 ar  
    31    15    38 1   
    32    16    17 ar  
    33    16    39 1   
    34    17    18 ar  
    35    17    40 1   
    36    18    19 1   
    37    19    20 1   
    38    19    23 2   
    39    20    21 2   
    40    20    41 1   
    41    21    22 1   
    42    21    42 1   
    43    22    23 1   
    44    23    43 1   
@<TRIPOS>SUBSTRUCTURE
     1 4TM         1 TEMP              0 ****  ****    0 ROOT
