@<TRIPOS>MOLECULE
4TM
   43    44     1     0     0
SMALL
abcg2


@<TRIPOS>ATOM
      1 CAA         -3.9190    -2.1410     1.5910 c3         1 4TM      -0.082100
      2 CAW         -4.3670    -1.8130     0.1610 c3         1 4TM      -0.118000
      3 CAB         -3.9830    -2.9600    -0.7840 c3         1 4TM      -0.082100
      4 CAC         -5.8810    -1.6270     0.1390 c3         1 4TM      -0.082100
      5 CAR         -3.6870    -0.5250    -0.3050 c          1 4TM       0.607100
      6 OAE         -4.2970     0.4630    -0.6840 o          1 4TM      -0.599100
      7 N           -2.3400    -0.5310    -0.2780 ns         1 4TM      -0.498900
      8 CA          -1.5770     0.6160    -0.6940 c3         1 4TM       0.093000
      9 C           -1.9860     1.8460     0.1280 c          1 4TM       0.607100
     10 O           -2.1980     1.7980     1.3210 o          1 4TM      -0.559100
     11 NAN         -1.9650     2.9760    -0.5990 ns         1 4TM      -0.375400
     12 OAF         -2.3750     4.1470    -0.0360 oh         1 4TM      -0.423100
     13 CAU         -0.1020     0.3720    -0.4880 ca         1 4TM      -0.116300
     14 CAL          0.3940    -0.0280     0.7520 ca         1 4TM      -0.091000
     15 CAJ          1.7500    -0.2340     0.9330 ca         1 4TM      -0.104500
     16 CAK          0.7920     0.5630    -1.5330 ca         1 4TM      -0.091000
     17 CAI          2.1510     0.3530    -1.3510 ca         1 4TM      -0.104500
     18 CAS          2.6550    -0.0530    -0.1160 ca         1 4TM       0.007000
     19 CAT          4.0920    -0.2920     0.0700 cc         1 4TM      -0.063000
     20 CAH          5.1190     0.2930    -0.7360 cc         1 4TM      -0.118000
     21 CAG          6.3680    -0.0880    -0.3640 cd         1 4TM      -0.248000
     22 SAP          6.3270    -1.1660     0.9660 ss         1 4TM       0.222000
     23 CAM          4.6210    -1.1080     1.0340 cd         1 4TM      -0.238000
     24 H1          -4.4640    -3.0130     1.9530 hc         1 4TM       0.041367
     25 H2          -2.8550    -2.3730     1.6600 hc         1 4TM       0.041367
     26 H3          -4.1220    -1.3130     2.2730 hc         1 4TM       0.041367
     27 H4          -4.2850    -2.7470    -1.8110 hc         1 4TM       0.041367
     28 H5          -2.9120    -3.1650    -0.7860 hc         1 4TM       0.041367
     29 H6          -4.4860    -3.8770    -0.4720 hc         1 4TM       0.041367
     30 H7          -6.2030    -0.8370     0.8180 hc         1 4TM       0.041367
     31 H8          -6.2490    -1.3860    -0.8580 hc         1 4TM       0.041367
     32 H9          -6.3650    -2.5530     0.4560 hc         1 4TM       0.041367
     33 H10         -1.8410    -1.3630    -0.0090 hn         1 4TM       0.328500
     34 H11         -1.7500     0.8150    -1.7570 h1         1 4TM       0.061700
     35 H12         -1.9950     2.9650    -1.6090 hn         1 4TM       0.334500
     36 H13         -1.5700     4.6170     0.2170 ho         1 4TM       0.443000
     37 H14         -0.2770    -0.1640     1.5910 ha         1 4TM       0.123000
     38 H15          2.1070    -0.5250     1.9130 ha         1 4TM       0.117500
     39 H16          0.4280     0.8690    -2.5060 ha         1 4TM       0.123000
     40 H17          2.8180     0.4910    -2.1920 ha         1 4TM       0.117500
     41 H18          4.9350     0.9820    -1.5490 ha         1 4TM       0.135000
     42 H19          7.3090     0.2130    -0.7980 h4         1 4TM       0.152000
     43 H20          4.0930    -1.6960     1.7690 h4         1 4TM       0.151000
@<TRIPOS>BOND
     1     1     2 1   
     2     1    24 1   
     3     1    25 1   
     4     1    26 1   
     5     2     3 1   
     6     2     4 1   
     7     2     5 1   
     8     3    27 1   
     9     3    28 1   
    10     3    29 1   
    11     4    30 1   
    12     4    31 1   
    13     4    32 1   
    14     5     6 2   
    15     5     7 1   
    16     7     8 1   
    17     7    33 1   
    18     8     9 1   
    19     8    13 1   
    20     8    34 1   
    21     9    10 2   
    22     9    11 1   
    23    11    12 1   
    24    11    35 1   
    25    12    36 1   
    26    13    14 ar  
    27    13    16 ar  
    28    14    15 ar  
    29    14    37 1   
    30    15    18 ar  
    31    15    38 1   
    32    16    17 ar  
    33    16    39 1   
    34    17    18 ar  
    35    17    40 1   
    36    18    19 1   
    37    19    20 1   
    38    19    23 2   
    39    20    21 2   
    40    20    41 1   
    41    21    22 1   
    42    21    42 1   
    43    22    23 1   
    44    23    43 1   
@<TRIPOS>SUBSTRUCTURE
     1 4TM         1 TEMP              0 ****  ****    0 ROOT
