@<TRIPOS>MOLECULE
4TN
   58    60     1     0     0
SMALL
No Charge or Current Charge


@<TRIPOS>ATOM
      1 CAA         -1.1140     2.4640     0.7990 c3         1 4TN      -0.092100
      2 CAP          0.1580     1.7540     0.3070 c3         1 4TN       0.165600
      3 OAS          0.0070     0.3540     0.5850 os         1 4TN      -0.326100
      4 CAW          0.9890    -0.5730     0.2830 ca         1 4TN       0.164100
      5 CAN          2.1850    -0.2190    -0.3710 ca         1 4TN      -0.211000
      6 CAZ          3.1590    -1.1890    -0.6950 ca         1 4TN      -0.029300
      7 CBB          4.4650    -0.7320    -1.4030 c6         1 4TN       0.001300
      8 CAB          5.0860     0.5240    -0.7070 c3         1 4TN      -0.078600
      9 CAC          4.1170    -0.3160    -2.8670 c3         1 4TN      -0.078600
     10 CAQ          5.5470    -1.8480    -1.3970 c6         1 4TN      -0.064400
     11 CAR          4.9620    -3.2150    -1.7860 c6         1 4TN      -0.065400
     12 CBC          3.8870    -3.6940    -0.7700 c6         1 4TN       0.010300
     13 CAD          4.5610    -4.2030     0.5430 c3         1 4TN      -0.081600
     14 CAE          3.1500    -4.9160    -1.4080 c3         1 4TN      -0.081600
     15 CBA          2.8910    -2.5590    -0.4030 ca         1 4TN      -0.102300
     16 CAO          1.6960    -2.8900     0.2770 ca         1 4TN      -0.066000
     17 CAY          0.7390    -1.9180     0.6370 cp         1 4TN      -0.036000
     18 CAX         -0.5110    -2.3370     1.3420 cp         1 4TN      -0.067000
     19 CAM         -1.4420    -3.1680     0.6740 ca         1 4TN      -0.072000
     20 CAV         -0.7900    -1.9440     2.6770 ca         1 4TN       0.127100
     21 OAH          0.0900    -1.1810     3.3900 oh         1 4TN      -0.534100
     22 CAL         -1.9730    -2.3600     3.3050 ca         1 4TN      -0.214000
     23 CAK         -2.8910    -3.1750     2.6210 ca         1 4TN      -0.081000
     24 CAU         -2.6330    -3.5900     1.3010 ca         1 4TN      -0.034800
     25 CAJ         -3.6240    -4.4610     0.6020 ce         1 4TN      -0.234200
     26 CAI         -3.5770    -4.9910    -0.6610 cf         1 4TN      -0.218200
     27 CAT         -4.6270    -5.8590    -1.2760 c          1 4TN       0.695200
     28 OAG         -4.4350    -6.2530    -2.4150 o          1 4TN      -0.725000
     29 OAF         -5.6220    -6.1390    -0.6250 o          1 4TN      -0.725000
     30 HAI         -2.7220    -4.7860    -1.2990 ha         1 4TN       0.143000
     31 HAJ         -4.5030    -4.6950     1.2070 ha         1 4TN       0.189000
     32 HAM         -1.2240    -3.4730    -0.3450 ha         1 4TN       0.122000
     33 HAH         -0.2940    -1.0220     4.2770 ho         1 4TN       0.447000
     34 HAL         -2.1880    -2.0610     4.3280 ha         1 4TN       0.095000
     35 HAK         -3.8030    -3.4890     3.1230 ha         1 4TN       0.111000
     36 HAO          1.4920    -3.9200     0.5510 ha         1 4TN       0.121000
     37 HAN          2.3620     0.8140    -0.6450 ha         1 4TN       0.105000
     38 HAP1         1.0310     2.1640     0.8320 h1         1 4TN       0.025200
     39 HAP2         0.2790     1.9270    -0.7710 h1         1 4TN       0.025200
     40 HAA1        -1.0440     3.5410     0.6080 hc         1 4TN       0.043700
     41 HAA2        -1.9970     2.0790     0.2770 hc         1 4TN       0.043700
     42 HAA3        -1.2480     2.3130     1.8760 hc         1 4TN       0.043700
     43 HAB1         4.4650     1.4200    -0.8110 hc         1 4TN       0.031700
     44 HAB2         5.2340     0.3470     0.3650 hc         1 4TN       0.031700
     45 HAB3         6.0650     0.7710    -1.1360 hc         1 4TN       0.031700
     46 HAC1         5.0140    -0.0310    -3.4300 hc         1 4TN       0.031700
     47 HAC2         3.6270    -1.1300    -3.4140 hc         1 4TN       0.031700
     48 HAC3         3.4320     0.5400    -2.8910 hc         1 4TN       0.031700
     49 HAQ1         6.0130    -1.9170    -0.4050 hc         1 4TN       0.035700
     50 HAQ2         6.3620    -1.5890    -2.0870 hc         1 4TN       0.035700
     51 HAR1         4.5290    -3.1560    -2.7930 hc         1 4TN       0.038700
     52 HAR2         5.7720    -3.9540    -1.8560 hc         1 4TN       0.038700
     53 HAD1         5.0600    -3.3910     1.0840 hc         1 4TN       0.034200
     54 HAD2         3.8260    -4.6380     1.2310 hc         1 4TN       0.034200
     55 HAD3         5.3120    -4.9750     0.3370 hc         1 4TN       0.034200
     56 HAE1         3.8660    -5.6660    -1.7700 hc         1 4TN       0.034200
     57 HAE2         2.4890    -5.4310    -0.7030 hc         1 4TN       0.034200
     58 HAE3         2.5410    -4.6060    -2.2660 hc         1 4TN       0.034200
@<TRIPOS>BOND
     1     1     2 1   
     2     1    40 1   
     3     1    41 1   
     4     1    42 1   
     5     2     3 1   
     6     2    38 1   
     7     2    39 1   
     8     3     4 1   
     9     4     5 ar  
    10     4    17 ar  
    11     5     6 ar  
    12     5    37 1   
    13     6     7 1   
    14     6    15 ar  
    15     7     8 1   
    16     7     9 1   
    17     7    10 1   
    18     8    43 1   
    19     8    44 1   
    20     8    45 1   
    21     9    46 1   
    22     9    47 1   
    23     9    48 1   
    24    10    11 1   
    25    10    49 1   
    26    10    50 1   
    27    11    12 1   
    28    11    51 1   
    29    11    52 1   
    30    12    13 1   
    31    12    14 1   
    32    12    15 1   
    33    13    53 1   
    34    13    54 1   
    35    13    55 1   
    36    14    56 1   
    37    14    57 1   
    38    14    58 1   
    39    15    16 ar  
    40    16    17 ar  
    41    16    36 1   
    42    17    18 1   
    43    18    19 ar  
    44    18    20 ar  
    45    19    24 ar  
    46    19    32 1   
    47    20    21 1   
    48    20    22 ar  
    49    21    33 1   
    50    22    23 ar  
    51    22    34 1   
    52    23    24 ar  
    53    23    35 1   
    54    24    25 1   
    55    25    26 2   
    56    25    31 1   
    57    26    27 1   
    58    26    30 1   
    59    27    28 1   
    60    27    29 1   
@<TRIPOS>SUBSTRUCTURE
     1 4TN         1 TEMP              0 ****  ****    0 ROOT
