@<TRIPOS>MOLECULE
4TN
   58    60     1     0     0
SMALL
abcg2


@<TRIPOS>ATOM
      1 CAA         -1.0310     2.4220     0.7390 c3         1 4TN      -0.092100
      2 CAP          0.2070     1.6750     0.3030 c3         1 4TN       0.165600
      3 OAS          0.0070     0.2980     0.5750 os         1 4TN      -0.326100
      4 CAW          0.9800    -0.5790     0.2700 ca         1 4TN       0.164100
      5 CAN          2.1750    -0.2410    -0.3440 ca         1 4TN      -0.211000
      6 CAZ          3.1380    -1.2000    -0.6790 ca         1 4TN      -0.029300
      7 CBB          4.4220    -0.7210    -1.3460 c6         1 4TN       0.001300
      8 CAB          5.0090     0.4980    -0.6240 c3         1 4TN      -0.078600
      9 CAC          4.1110    -0.3300    -2.7980 c3         1 4TN      -0.078600
     10 CAQ          5.4770    -1.8310    -1.3080 c6         1 4TN      -0.064400
     11 CAR          4.9200    -3.1730    -1.7360 c6         1 4TN      -0.065400
     12 CBC          3.8300    -3.6780    -0.7850 c6         1 4TN       0.010300
     13 CAD          4.4650    -4.2260     0.4990 c3         1 4TN      -0.081600
     14 CAE          3.0850    -4.8190    -1.4900 c3         1 4TN      -0.081600
     15 CBA          2.8740    -2.5470    -0.4240 ca         1 4TN      -0.102300
     16 CAO          1.6780    -2.8620     0.2300 ca         1 4TN      -0.066000
     17 CAY          0.7340    -1.9200     0.5950 cp         1 4TN      -0.036000
     18 CAX         -0.5110    -2.3260     1.2820 cp         1 4TN      -0.067000
     19 CAM         -1.4110    -3.1780     0.6610 ca         1 4TN      -0.072000
     20 CAV         -0.7800    -1.8980     2.5910 ca         1 4TN       0.127100
     21 OAH          0.1260    -1.1100     3.1910 oh         1 4TN      -0.534100
     22 CAL         -1.9400    -2.3210     3.2300 ca         1 4TN      -0.214000
     23 CAK         -2.8230    -3.1710     2.5840 ca         1 4TN      -0.081000
     24 CAU         -2.5820    -3.6200     1.2860 ca         1 4TN      -0.034800
     25 CAJ         -3.5430    -4.5180     0.6490 ce         1 4TN      -0.234200
     26 CAI         -3.5300    -4.9640    -0.6100 cf         1 4TN      -0.218200
     27 CAT         -4.5770    -5.9000    -1.1630 c          1 4TN       0.695200
     28 OAG         -4.4340    -6.2210    -2.3620 o          1 4TN      -0.725000
     29 OAF         -5.4890    -6.2760    -0.3970 o          1 4TN      -0.725000
     30 HAI         -2.7470    -4.6570    -1.2980 ha         1 4TN       0.143000
     31 HAJ         -4.3570    -4.8510     1.2870 ha         1 4TN       0.189000
     32 HAM         -1.1840    -3.5030    -0.3470 ha         1 4TN       0.122000
     33 HAH         -0.1730    -0.8690     4.0750 ho         1 4TN       0.447000
     34 HAL         -2.1490    -1.9960     4.2430 ha         1 4TN       0.095000
     35 HAK         -3.7180    -3.4930     3.1030 ha         1 4TN       0.111000
     36 HAO          1.4710    -3.8960     0.4830 ha         1 4TN       0.121000
     37 HAN          2.3770     0.7940    -0.5820 ha         1 4TN       0.105000
     38 HAP1         1.0860     2.0450     0.8420 h1         1 4TN       0.025200
     39 HAP2         0.3890     1.8290    -0.7670 h1         1 4TN       0.025200
     40 HAA1        -0.9060     3.4840     0.5310 hc         1 4TN       0.043700
     41 HAA2        -1.9140     2.0770     0.2010 hc         1 4TN       0.043700
     42 HAA3        -1.2080     2.3060     1.8080 hc         1 4TN       0.043700
     43 HAB1         4.3580     1.3720    -0.6620 hc         1 4TN       0.031700
     44 HAB2         5.2100     0.2760     0.4260 hc         1 4TN       0.031700
     45 HAB3         5.9530     0.7790    -1.0930 hc         1 4TN       0.031700
     46 HAC1         5.0180     0.0070    -3.3050 hc         1 4TN       0.031700
     47 HAC2         3.7000    -1.1640    -3.3670 hc         1 4TN       0.031700
     48 HAC3         3.3850     0.4830    -2.8430 hc         1 4TN       0.031700
     49 HAQ1         5.8780    -1.9090    -0.2930 hc         1 4TN       0.035700
     50 HAQ2         6.3180    -1.5420    -1.9450 hc         1 4TN       0.035700
     51 HAR1         4.5150    -3.0990    -2.7500 hc         1 4TN       0.038700
     52 HAR2         5.7190    -3.9170    -1.7860 hc         1 4TN       0.038700
     53 HAD1         5.0030    -3.4540     1.0510 hc         1 4TN       0.034200
     54 HAD2         3.7070    -4.6370     1.1690 hc         1 4TN       0.034200
     55 HAD3         5.1720    -5.0270     0.2670 hc         1 4TN       0.034200
     56 HAE1         3.7940    -5.5850    -1.8120 hc         1 4TN       0.034200
     57 HAE2         2.3570    -5.3080    -0.8430 hc         1 4TN       0.034200
     58 HAE3         2.5580    -4.4580    -2.3760 hc         1 4TN       0.034200
@<TRIPOS>BOND
     1     1     2 1   
     2     1    40 1   
     3     1    41 1   
     4     1    42 1   
     5     2     3 1   
     6     2    38 1   
     7     2    39 1   
     8     3     4 1   
     9     4     5 ar  
    10     4    17 ar  
    11     5     6 ar  
    12     5    37 1   
    13     6     7 1   
    14     6    15 ar  
    15     7     8 1   
    16     7     9 1   
    17     7    10 1   
    18     8    43 1   
    19     8    44 1   
    20     8    45 1   
    21     9    46 1   
    22     9    47 1   
    23     9    48 1   
    24    10    11 1   
    25    10    49 1   
    26    10    50 1   
    27    11    12 1   
    28    11    51 1   
    29    11    52 1   
    30    12    13 1   
    31    12    14 1   
    32    12    15 1   
    33    13    53 1   
    34    13    54 1   
    35    13    55 1   
    36    14    56 1   
    37    14    57 1   
    38    14    58 1   
    39    15    16 ar  
    40    16    17 ar  
    41    16    36 1   
    42    17    18 1   
    43    18    19 ar  
    44    18    20 ar  
    45    19    24 ar  
    46    19    32 1   
    47    20    21 1   
    48    20    22 ar  
    49    21    33 1   
    50    22    23 ar  
    51    22    34 1   
    52    23    24 ar  
    53    23    35 1   
    54    24    25 1   
    55    25    26 2   
    56    25    31 1   
    57    26    27 1   
    58    26    30 1   
    59    27    28 1   
    60    27    29 1   
@<TRIPOS>SUBSTRUCTURE
     1 4TN         1 TEMP              0 ****  ****    0 ROOT
