@<TRIPOS>MOLECULE
4TP
   20    19     1     0     0
SMALL
abcg2


@<TRIPOS>ATOM
      1 N            1.1680     1.4270     2.2270 n8         1 4TP      -1.037200
      2 CA          -0.0710     0.6670     2.1780 c3         1 4TP      -0.001500
      3 CB          -0.1790    -0.3290     1.0110 c3         1 4TP       0.125300
      4 OG1          0.7850    -1.3590     1.1170 oh         1 4TP      -0.655000
      5 CG2         -0.1210     0.3650    -0.3430 c3         1 4TP       0.216600
      6 C           -0.3060    -0.0870     3.5070 c          1 4TP       0.729000
      7 O            0.6290    -0.1210     4.3300 o          1 4TP      -0.765000
      8 OXT         -1.4290    -0.6150     3.6390 o          1 4TP      -0.765000
      9 OP4         -0.4370    -0.5350    -1.3610 os         1 4TP      -0.584400
     10 P           -0.1550    -0.0270    -2.9630 p5         1 4TP       1.291900
     11 OP1          1.3550     0.1640    -3.0610 o          1 4TP      -0.942167
     12 OP2         -0.7030    -1.2200    -3.7370 o          1 4TP      -0.942167
     13 OP3         -0.9550     1.2640    -3.1150 o          1 4TP      -0.942167
     14 H            1.8880     0.8820     2.6820 hn         1 4TP       0.386500
     15 HN2          1.4950     1.6810     1.3050 hn         1 4TP       0.386500
     16 HA          -0.9030     1.3740     2.0580 h1         1 4TP       0.041700
     17 HB          -1.1520    -0.8220     1.0940 h1         1 4TP       0.084700
     18 HG1          1.6560    -0.9470     1.0880 ho         1 4TP       0.403000
     19 HG21        -0.8190     1.2160    -0.3240 h1         1 4TP      -0.015800
     20 HG22         0.8840     0.7930    -0.4950 h1         1 4TP      -0.015800
@<TRIPOS>BOND
     1     1     2 1   
     2     1    14 1   
     3     1    15 1   
     4     2     3 1   
     5     2     6 1   
     6     2    16 1   
     7     3     4 1   
     8     3     5 1   
     9     3    17 1   
    10     4    18 1   
    11     5     9 1   
    12     5    19 1   
    13     5    20 1   
    14     6     7 1   
    15     6     8 1   
    16     9    10 1   
    17    10    11 1   
    18    10    12 1   
    19    10    13 1   
@<TRIPOS>SUBSTRUCTURE
     1 4TP         1 TEMP              0 ****  ****    0 ROOT
