@<TRIPOS>MOLECULE
4TP
   20    19     1     0     0
SMALL
No Charge or Current Charge


@<TRIPOS>ATOM
      1 N            1.5000     0.5720     2.7890 n8         1 4TP      -1.037200
      2 CA           0.1310     0.7710     2.1520 c3         1 4TP      -0.001500
      3 CB           0.0380     0.1510     0.7190 c3         1 4TP       0.125300
      4 OG1          0.5020    -1.2160     0.7200 oh         1 4TP      -0.655000
      5 CG2          0.8070     1.0050    -0.3500 c3         1 4TP       0.216600
      6 C           -1.1440     0.3480     2.9950 c          1 4TP       0.729000
      7 O           -1.0550    -0.5780     3.7950 o          1 4TP      -0.765000
      8 OXT         -2.1460     1.0460     2.9080 o          1 4TP      -0.765000
      9 OP4          0.9110     0.3800    -1.6510 os         1 4TP      -0.584400
     10 P           -0.2590    -0.4680    -2.3660 p5         1 4TP       1.291900
     11 OP1         -1.5340     0.2960    -2.3230 o          1 4TP      -0.942167
     12 OP2          0.1240    -0.6980    -3.7850 o          1 4TP      -0.942167
     13 OP3         -0.4100    -1.7810    -1.6830 o          1 4TP      -0.942167
     14 H            1.5830    -0.4280     3.0120 hn         1 4TP       0.386500
     15 HN2          2.2190     0.7040     2.0680 hn         1 4TP       0.386500
     16 HA           0.0260     1.8570     2.0160 h1         1 4TP       0.041700
     17 HB          -1.0220     0.1770     0.4300 h1         1 4TP       0.084700
     18 HG1          0.2350    -1.5540    -0.1850 ho         1 4TP       0.403000
     19 HG21         0.3040     1.9760    -0.4480 h1         1 4TP      -0.015800
     20 HG22         1.8190     1.2120     0.0240 h1         1 4TP      -0.015800
@<TRIPOS>BOND
     1     1     2 1   
     2     1    14 1   
     3     1    15 1   
     4     2     3 1   
     5     2     6 1   
     6     2    16 1   
     7     3     4 1   
     8     3     5 1   
     9     3    17 1   
    10     4    18 1   
    11     5     9 1   
    12     5    19 1   
    13     5    20 1   
    14     6     7 1   
    15     6     8 1   
    16     9    10 1   
    17    10    11 1   
    18    10    12 1   
    19    10    13 1   
@<TRIPOS>SUBSTRUCTURE
     1 4TP         1 TEMP              0 ****  ****    0 ROOT
