@<TRIPOS>MOLECULE
4TQ
   58    62     1     0     0
SMALL
No Charge or Current Charge


@<TRIPOS>ATOM
      1 FBH         -2.7200    -0.8500    -1.7780 f          1 4TQ      -0.113000
      2 CBG         -2.8110    -2.1980    -1.6940 c3         1 4TQ       0.355300
      3 FBI         -3.9910    -2.4670    -1.0900 f          1 4TQ      -0.113000
      4 FBJ         -2.9010    -2.6640    -2.9600 f          1 4TQ      -0.113000
      5 CBE         -1.6340    -2.8360    -0.9480 ca         1 4TQ      -0.200300
      6 CBF         -0.4620    -2.1030    -0.6560 ca         1 4TQ      -0.031000
      7 CBD         -1.7100    -4.1860    -0.5540 ca         1 4TQ      -0.056000
      8 CBC         -0.6390    -4.7860     0.1240 ca         1 4TQ      -0.123000
      9 CBB          0.5150    -4.0460     0.4240 ca         1 4TQ      -0.073000
     10 CBA          0.6330    -2.6810     0.0490 cp         1 4TQ      -0.135500
     11 CAX          1.8570    -1.8680     0.3870 cp         1 4TQ       0.396500
     12 CAY          2.7680    -2.2310     1.4170 ca         1 4TQ      -0.136000
     13 CAZ          3.8610    -1.4010     1.7370 ca         1 4TQ      -0.137000
     14 NAW          2.0180    -0.7120    -0.2950 nb         1 4TQ      -0.722000
     15 CAP          3.0440     0.1060     0.0330 ca         1 4TQ       0.451900
     16 CAQ          4.0170    -0.1910     1.0360 ca         1 4TQ       0.248000
     17 NAR          5.1410     0.6780     1.2450 nh         1 4TQ      -0.801400
     18 CAV          5.4170     1.7760     0.2540 c6         1 4TQ       0.204800
     19 CAS          6.0790     0.5170     2.3790 c3         1 4TQ       0.206100
     20 CAT          4.8290     2.8380    -2.0160 c3         1 4TQ      -0.106100
     21 CAU          4.5460     1.6560    -1.0460 c6         1 4TQ       0.115700
     22 NAO          3.1320     1.3660    -0.6390 n          1 4TQ      -0.432300
     23 CAM          2.0390     2.2670    -0.7610 c          1 4TQ       0.677100
     24 OAN          2.1470     3.3650    -1.2870 o          1 4TQ      -0.584100
     25 NAL          0.8360     1.8230    -0.2240 ns         1 4TQ      -0.119000
     26 CAH         -0.4690     2.3790    -0.1610 ca         1 4TQ      -0.015000
     27 CAG         -1.4910     1.5530     0.3430 ca         1 4TQ      -0.143000
     28 CAI         -0.7910     3.6860    -0.5820 ca         1 4TQ      -0.119000
     29 CAJ         -2.1170     4.1440    -0.5030 ca         1 4TQ      -0.084000
     30 CAK         -3.1310     3.3060    -0.0110 ca         1 4TQ      -0.113000
     31 CAF         -2.8280     1.9960     0.4170 ca         1 4TQ      -0.088500
     32 CAD         -3.8690     1.0910     0.9230 cc         1 4TQ       0.163500
     33 OAE         -3.6050    -0.1650     1.3590 os         1 4TQ      -0.257000
     34 CAA         -4.8400    -0.6340     1.7050 cc         1 4TQ       0.432900
     35 NAB         -5.8350     0.2330     1.5180 nd         1 4TQ      -0.675000
     36 CAC         -5.2110     1.3570     1.0070 cd         1 4TQ       0.238900
     37 H1          -0.4000    -1.0640    -0.9710 ha         1 4TQ       0.148000
     38 H2          -2.5980    -4.7750    -0.7780 ha         1 4TQ       0.131000
     39 H3          -0.7040    -5.8310     0.4190 ha         1 4TQ       0.120000
     40 H4           1.3260    -4.5510     0.9420 ha         1 4TQ       0.115000
     41 H5           2.6250    -3.1460     1.9810 ha         1 4TQ       0.124000
     42 H6           4.5620    -1.7010     2.5100 ha         1 4TQ       0.121000
     43 H7           5.2110     2.7490     0.7250 h1         1 4TQ       0.049700
     44 H8           6.4790     1.7690    -0.0320 h1         1 4TQ       0.049700
     45 H9           6.6930    -0.3830     2.2460 h1         1 4TQ       0.039033
     46 H10          6.7510     1.3830     2.4550 h1         1 4TQ       0.039033
     47 H11          5.5280     0.4370     3.3260 h1         1 4TQ       0.039033
     48 H12          5.8770     2.8300    -2.3370 hc         1 4TQ       0.051700
     49 H13          4.2130     2.7670    -2.9210 hc         1 4TQ       0.051700
     50 H14          4.6460     3.8100    -1.5440 hc         1 4TQ       0.051700
     51 H15          4.9020     0.7610    -1.5780 h1         1 4TQ       0.070700
     52 H16          0.8930     0.8870     0.1560 hn         1 4TQ       0.164000
     53 H17         -1.2420     0.5470     0.6730 ha         1 4TQ       0.124000
     54 H18         -0.0350     4.3620    -0.9700 ha         1 4TQ       0.147000
     55 H19         -2.3610     5.1530    -0.8280 ha         1 4TQ       0.118000
     56 H20         -4.1480     3.6870     0.0330 ha         1 4TQ       0.119000
     57 H21         -4.9130    -1.6440     2.0940 h5         1 4TQ       0.081100
     58 H22         -5.7550     2.2540     0.7390 h4         1 4TQ       0.049100
@<TRIPOS>BOND
     1     1     2 1   
     2     2     3 1   
     3     2     4 1   
     4     2     5 1   
     5     5     6 ar  
     6     5     7 ar  
     7     6    10 ar  
     8     6    37 1   
     9     7     8 ar  
    10     7    38 1   
    11     8     9 ar  
    12     8    39 1   
    13     9    10 ar  
    14     9    40 1   
    15    10    11 1   
    16    11    12 ar  
    17    11    14 ar  
    18    12    13 ar  
    19    12    41 1   
    20    13    16 ar  
    21    13    42 1   
    22    14    15 ar  
    23    15    16 ar  
    24    15    22 1   
    25    16    17 1   
    26    17    18 1   
    27    17    19 1   
    28    18    21 1   
    29    18    43 1   
    30    18    44 1   
    31    19    45 1   
    32    19    46 1   
    33    19    47 1   
    34    20    21 1   
    35    20    48 1   
    36    20    49 1   
    37    20    50 1   
    38    21    22 1   
    39    21    51 1   
    40    22    23 1   
    41    23    24 2   
    42    23    25 1   
    43    25    26 1   
    44    25    52 1   
    45    26    27 ar  
    46    26    28 ar  
    47    27    31 ar  
    48    27    53 1   
    49    28    29 ar  
    50    28    54 1   
    51    29    30 ar  
    52    29    55 1   
    53    30    31 ar  
    54    30    56 1   
    55    31    32 1   
    56    32    33 1   
    57    32    36 2   
    58    33    34 1   
    59    34    35 2   
    60    34    57 1   
    61    35    36 1   
    62    36    58 1   
@<TRIPOS>SUBSTRUCTURE
     1 4TQ         1 TEMP              0 ****  ****    0 ROOT
