@<TRIPOS>MOLECULE
4TQ
   58    62     1     0     0
SMALL
bcc


@<TRIPOS>ATOM
      1 FBH         -2.5500    -0.8300    -1.7330 f          1 4TQ      -0.234300
      2 CBG         -2.8120    -1.8480    -0.9050 c3         1 4TQ       0.719200
      3 FBI         -3.3190    -1.3120     0.2170 f          1 4TQ      -0.234300
      4 FBJ         -3.7930    -2.5640    -1.4650 f          1 4TQ      -0.234300
      5 CBE         -1.5920    -2.6670    -0.6170 ca         1 4TQ      -0.200300
      6 CBF         -0.4050    -2.0080    -0.3260 ca         1 4TQ      -0.049000
      7 CBD         -1.6540    -4.0540    -0.6000 ca         1 4TQ      -0.074000
      8 CBC         -0.5070    -4.7720    -0.2930 ca         1 4TQ      -0.141000
      9 CBB          0.6790    -4.1200    -0.0050 ca         1 4TQ      -0.091000
     10 CBA          0.7500    -2.7240    -0.0120 cp         1 4TQ      -0.135500
     11 CAX          2.0050    -2.0060     0.2870 cp         1 4TQ       0.461800
     12 CAY          3.1050    -2.6100     0.8690 ca         1 4TQ      -0.219300
     13 CAZ          4.2510    -1.8560     1.0930 ca         1 4TQ      -0.155000
     14 NAW          2.0360    -0.7060    -0.0270 nb         1 4TQ      -0.722000
     15 CAP          3.0980     0.0240     0.1980 ca         1 4TQ       0.517200
     16 CAQ          4.3000    -0.5140     0.7360 ca         1 4TQ       0.044300
     17 NAR          5.4130     0.2720     0.8540 nh         1 4TQ      -0.663000
     18 CAV          5.2140     1.7000     0.8480 c6         1 4TQ       0.204800
     19 CAS          6.5770    -0.2420     1.5310 c3         1 4TQ       0.206100
     20 CAT          4.0390     3.6230    -0.1710 c3         1 4TQ      -0.106100
     21 CAU          4.2810     2.1260    -0.2750 c6         1 4TQ       0.115700
     22 NAO          3.0320     1.3760    -0.1240 n          1 4TQ      -0.499300
     23 CAM          1.9230     1.8040    -0.9000 c          1 4TQ       0.811100
     24 OAN          2.0280     2.0820    -2.0750 o          1 4TQ      -0.584100
     25 NAL          0.7960     1.9240    -0.1640 ns         1 4TQ      -0.445100
     26 CAH         -0.5110     2.1400    -0.6100 ca         1 4TQ       0.077600
     27 CAG         -1.5320     1.8220     0.2860 ca         1 4TQ      -0.161000
     28 CAI         -0.8310     2.6630    -1.8620 ca         1 4TQ      -0.137000
     29 CAJ         -2.1670     2.8500    -2.1930 ca         1 4TQ      -0.102000
     30 CAK         -3.1820     2.5360    -1.3100 ca         1 4TQ      -0.131000
     31 CAF         -2.8660     2.0160    -0.0530 ca         1 4TQ      -0.088500
     32 CAD         -3.9330     1.6720     0.8670 cc         1 4TQ       0.207900
     33 OAE         -3.6150     1.2230     2.1070 os         1 4TQ      -0.345800
     34 CAA         -4.7800     0.9760     2.7110 cc         1 4TQ       0.477300
     35 NAB         -5.8080     1.2260     1.9820 nd         1 4TQ      -0.675000
     36 CAC         -5.2870     1.6760     0.7910 cd         1 4TQ       0.238900
     37 H1          -0.3550    -0.9270    -0.3410 ha         1 4TQ       0.166000
     38 H2          -2.5700    -4.5820    -0.8260 ha         1 4TQ       0.149000
     39 H3          -0.5390    -5.8540    -0.2870 ha         1 4TQ       0.138000
     40 H4           1.5580    -4.7130     0.2100 ha         1 4TQ       0.133000
     41 H5           3.0950    -3.6480     1.1670 ha         1 4TQ       0.142000
     42 H6           5.1070    -2.3310     1.5510 ha         1 4TQ       0.139000
     43 H7           4.8220     2.0660     1.8080 h1         1 4TQ       0.049700
     44 H8           6.1780     2.1830     0.6860 h1         1 4TQ       0.049700
     45 H9           6.9210    -1.1650     1.0630 h1         1 4TQ       0.039033
     46 H10          7.3820     0.4850     1.4500 h1         1 4TQ       0.039033
     47 H11          6.4030    -0.4420     2.5950 h1         1 4TQ       0.039033
     48 H12          4.9920     4.1500    -0.2210 hc         1 4TQ       0.051700
     49 H13          3.4220     4.0050    -0.9820 hc         1 4TQ       0.051700
     50 H14          3.5620     3.8750     0.7780 hc         1 4TQ       0.051700
     51 H15          4.7560     1.8910    -1.2340 h1         1 4TQ       0.070700
     52 H16          0.8850     1.6660     0.8070 hn         1 4TQ       0.330500
     53 H17         -1.2670     1.4120     1.2530 ha         1 4TQ       0.142000
     54 H18         -0.0650     2.9310    -2.5700 ha         1 4TQ       0.165000
     55 H19         -2.4140     3.2580    -3.1640 ha         1 4TQ       0.136000
     56 H20         -4.2130     2.6970    -1.5960 ha         1 4TQ       0.137000
     57 H21         -4.7500     0.6030     3.7240 h5         1 4TQ       0.081100
     58 H22         -5.9160     1.9650    -0.0360 h4         1 4TQ       0.049100
@<TRIPOS>BOND
     1     1     2 1   
     2     2     3 1   
     3     2     4 1   
     4     2     5 1   
     5     5     6 ar  
     6     5     7 ar  
     7     6    10 ar  
     8     6    37 1   
     9     7     8 ar  
    10     7    38 1   
    11     8     9 ar  
    12     8    39 1   
    13     9    10 ar  
    14     9    40 1   
    15    10    11 1   
    16    11    12 ar  
    17    11    14 ar  
    18    12    13 ar  
    19    12    41 1   
    20    13    16 ar  
    21    13    42 1   
    22    14    15 ar  
    23    15    16 ar  
    24    15    22 1   
    25    16    17 1   
    26    17    18 1   
    27    17    19 1   
    28    18    21 1   
    29    18    43 1   
    30    18    44 1   
    31    19    45 1   
    32    19    46 1   
    33    19    47 1   
    34    20    21 1   
    35    20    48 1   
    36    20    49 1   
    37    20    50 1   
    38    21    22 1   
    39    21    51 1   
    40    22    23 1   
    41    23    24 2   
    42    23    25 1   
    43    25    26 1   
    44    25    52 1   
    45    26    27 ar  
    46    26    28 ar  
    47    27    31 ar  
    48    27    53 1   
    49    28    29 ar  
    50    28    54 1   
    51    29    30 ar  
    52    29    55 1   
    53    30    31 ar  
    54    30    56 1   
    55    31    32 1   
    56    32    33 1   
    57    32    36 2   
    58    33    34 1   
    59    34    35 2   
    60    34    57 1   
    61    35    36 1   
    62    36    58 1   
@<TRIPOS>SUBSTRUCTURE
     1 4TQ         1 TEMP              0 ****  ****    0 ROOT
