@<TRIPOS>MOLECULE
4TR
   40    42     1     0     0
SMALL
No Charge or Current Charge


@<TRIPOS>ATOM
      1 S1          -1.7220     0.1850     4.0140 s6         1 4TR       1.396800
      2 O1          -1.2450     1.2540     3.1380 o          1 4TR      -0.531000
      3 O2          -1.6460     0.2870     5.4690 o          1 4TR      -0.531000
      4 O3          -1.1940    -1.2810     3.5080 os         1 4TR      -0.429800
      5 N1          -3.3030     0.0180     3.6860 n8         1 4TR      -1.075100
      6 C1          -0.6500    -1.3760     2.2520 ca         1 4TR       0.158100
      7 C2          -1.4920    -1.5770     1.1450 ca         1 4TR      -0.123000
      8 C3          -0.9460    -1.6810    -0.1460 ca         1 4TR      -0.073000
      9 C4           0.4480    -1.5980    -0.3370 ca         1 4TR      -0.140300
     10 C5           1.2900    -1.4110     0.7780 ca         1 4TR      -0.051000
     11 C6           0.7450    -1.3030     2.0690 ca         1 4TR      -0.026900
     12 C7           1.0420    -1.6820    -1.7400 c3         1 4TR       0.280100
     13 N2          -2.5820     0.5650    -8.2920 n1         1 4TR      -0.450000
     14 C9          -1.2420     0.2030    -6.0880 ca         1 4TR      -0.056000
     15 C10         -0.1820     1.0610    -5.7490 ca         1 4TR      -0.031500
     16 C11          0.5380     0.8580    -4.5580 ca         1 4TR      -0.176000
     17 C12          0.2200    -0.2060    -3.6870 ca         1 4TR       0.340000
     18 C13         -0.8510    -1.0550    -4.0370 ca         1 4TR      -0.176000
     19 C14         -1.5760    -0.8560    -5.2260 ca         1 4TR      -0.031500
     20 N3           0.9560    -0.3960    -2.4800 nh         1 4TR      -0.683700
     21 N4           3.3950     2.0280    -1.3680 nc         1 4TR      -0.347500
     22 N5           2.2800     2.4240    -0.6510 nc         1 4TR      -0.347500
     23 C17          1.2820     1.6070    -0.9720 cd         1 4TR       0.384400
     24 N6           1.7190     0.6750    -1.8940 na         1 4TR      -0.167500
     25 C15          3.0510     0.9790    -2.1070 cd         1 4TR       0.384400
     26 Br           1.9230    -1.0480     3.5610 br         1 4TR      -0.037100
     27 HN11        -3.4980     0.9600     3.3590 hn         1 4TR       0.497500
     28 HN12        -3.6570     0.0510     4.6380 hn         1 4TR       0.497500
     29 H2          -2.5670    -1.6450     1.2870 ha         1 4TR       0.139000
     30 H3          -1.6080    -1.8220    -0.9980 ha         1 4TR       0.125000
     31 H5           2.3670    -1.3400     0.6440 ha         1 4TR       0.140000
     32 H71          0.5550    -2.4970    -2.2880 h1         1 4TR       0.075700
     33 H72          2.0970    -1.9800    -1.6610 h1         1 4TR       0.075700
     34 H10          0.0870     1.8870    -6.4060 ha         1 4TR       0.129000
     35 H11          1.3530     1.5340    -4.3250 ha         1 4TR       0.128000
     36 H13         -1.1500    -1.8690    -3.3870 ha         1 4TR       0.128000
     37 H14         -2.4000    -1.5240    -5.4720 ha         1 4TR       0.129000
     38 H17          0.2680     1.6250    -0.5910 h5         1 4TR       0.074600
     39 H15          3.6810     0.4170    -2.7850 h5         1 4TR       0.074600
     40 C8          -1.9800     0.4080    -7.3030 cg         1 4TR       0.326000
@<TRIPOS>BOND
     1     1     2 2   
     2     1     3 2   
     3     1     4 1   
     4     1     5 1   
     5     4     6 1   
     6     5    27 1   
     7     5    28 1   
     8     6     7 ar  
     9     6    11 ar  
    10     7     8 ar  
    11     7    29 1   
    12     8     9 ar  
    13     8    30 1   
    14     9    10 ar  
    15     9    12 1   
    16    10    11 ar  
    17    10    31 1   
    18    11    26 1   
    19    12    20 1   
    20    12    32 1   
    21    12    33 1   
    22    13    40 3   
    23    14    15 ar  
    24    14    19 ar  
    25    14    40 1   
    26    15    16 ar  
    27    15    34 1   
    28    16    17 ar  
    29    16    35 1   
    30    17    18 ar  
    31    17    20 1   
    32    18    19 ar  
    33    18    36 1   
    34    19    37 1   
    35    20    24 1   
    36    21    22 1   
    37    21    25 2   
    38    22    23 2   
    39    23    24 1   
    40    23    38 1   
    41    24    25 1   
    42    25    39 1   
@<TRIPOS>SUBSTRUCTURE
     1 4TR         1 TEMP              0 ****  ****    0 ROOT
