@<TRIPOS>MOLECULE
4TR
   40    42     1     0     0
SMALL
bcc


@<TRIPOS>ATOM
      1 S1          -1.8620     0.3500     3.7100 s6         1 4TR       1.538400
      2 O1          -0.8990     1.3330     3.2830 o          1 4TR      -0.601800
      3 O2          -2.1710     0.1430     5.1010 o          1 4TR      -0.601800
      4 O3          -1.3290    -1.1300     3.2680 os         1 4TR      -0.429800
      5 N1          -3.1810     0.5210     2.7790 n8         1 4TR      -0.964700
      6 C1          -0.6970    -1.2650     2.0560 ca         1 4TR       0.158100
      7 C2          -1.4370    -1.4810     0.9030 ca         1 4TR      -0.141000
      8 C3          -0.7890    -1.6670    -0.3060 ca         1 4TR      -0.091000
      9 C4           0.6010    -1.6430    -0.3740 ca         1 4TR      -0.140300
     10 C5           1.3360    -1.4420     0.7870 ca         1 4TR      -0.069000
     11 C6           0.6910    -1.2480     2.0000 ca         1 4TR      -0.026900
     12 C7           1.3190    -1.7780    -1.6920 c3         1 4TR       0.280100
     13 N2          -3.2800     0.7360    -7.3490 n1         1 4TR      -0.360800
     14 C9          -1.5600     0.2440    -5.4950 ca         1 4TR      -0.056000
     15 C10         -0.6940     1.2420    -5.0490 ca         1 4TR      -0.049500
     16 C11          0.2230     0.9810    -4.0530 ca         1 4TR      -0.194000
     17 C12          0.3010    -0.2920    -3.4690 ca         1 4TR       0.201600
     18 C13         -0.5700    -1.2910    -3.9250 ca         1 4TR      -0.194000
     19 C14         -1.4850    -1.0240    -4.9220 ca         1 4TR      -0.049500
     20 N3           1.2430    -0.5600    -2.4900 nh         1 4TR      -0.545300
     21 N4           3.5300     1.8870    -1.5340 nc         1 4TR      -0.347500
     22 N5           2.4560     2.2200    -0.7600 nc         1 4TR      -0.347500
     23 C17          1.5030     1.3820    -1.0190 cd         1 4TR       0.384400
     24 N6           1.9240     0.4950    -1.9630 na         1 4TR      -0.167500
     25 C15          3.2020     0.8570    -2.2490 cd         1 4TR       0.384400
     26 BR           1.6950    -0.9980     3.5640 br         1 4TR      -0.037100
     27 HN11        -3.3180     1.4600     2.4270 hn         1 4TR       0.442300
     28 HN12        -4.0270     0.1030     3.1480 hn         1 4TR       0.442300
     29 H2          -2.5160    -1.5150     0.9600 ha         1 4TR       0.157000
     30 H3          -1.3820    -1.8360    -1.1960 ha         1 4TR       0.143000
     31 H5           2.4180    -1.4320     0.7430 ha         1 4TR       0.158000
     32 H71          0.9220    -2.6040    -2.2760 h1         1 4TR       0.075700
     33 H72          2.3730    -2.0020    -1.5300 h1         1 4TR       0.075700
     34 H10         -0.7330     2.2320    -5.4830 ha         1 4TR       0.147000
     35 H11          0.8790     1.7820    -3.7460 ha         1 4TR       0.146000
     36 H13         -0.5510    -2.2900    -3.5170 ha         1 4TR       0.146000
     37 H14         -2.1470    -1.8130    -5.2530 ha         1 4TR       0.147000
     38 H17          0.5140     1.3710    -0.5880 h5         1 4TR       0.074600
     39 H15          3.8150     0.3390    -2.9690 h5         1 4TR       0.074600
     40 C8          -2.5090     0.5160    -6.5200 cg         1 4TR       0.236800
@<TRIPOS>BOND
     1     1     2 2   
     2     1     3 2   
     3     1     4 1   
     4     1     5 1   
     5     4     6 1   
     6     5    27 1   
     7     5    28 1   
     8     6     7 ar  
     9     6    11 ar  
    10     7     8 ar  
    11     7    29 1   
    12     8     9 ar  
    13     8    30 1   
    14     9    10 ar  
    15     9    12 1   
    16    10    11 ar  
    17    10    31 1   
    18    11    26 1   
    19    12    20 1   
    20    12    32 1   
    21    12    33 1   
    22    13    40 3   
    23    14    15 ar  
    24    14    19 ar  
    25    14    40 1   
    26    15    16 ar  
    27    15    34 1   
    28    16    17 ar  
    29    16    35 1   
    30    17    18 ar  
    31    17    20 1   
    32    18    19 ar  
    33    18    36 1   
    34    19    37 1   
    35    20    24 1   
    36    21    22 1   
    37    21    25 2   
    38    22    23 2   
    39    23    24 1   
    40    23    38 1   
    41    24    25 1   
    42    25    39 1   
@<TRIPOS>SUBSTRUCTURE
     1 4TR         1 TEMP              0 ****  ****    0 ROOT
