@<TRIPOS>MOLECULE
4TS
   51    53     1     0     0
SMALL
No Charge or Current Charge


@<TRIPOS>ATOM
      1 C4         -18.8410     8.0420     4.3420 ca         1 4TS       0.219300
      2 C5         -19.4470     9.3310     4.3240 cp         1 4TS      -0.269000
      3 C6         -18.6940    10.3620     4.9290 ca         1 4TS       0.427900
      4 N1         -17.4920    10.1720     5.4760 nb         1 4TS      -0.333000
      5 N3         -17.6250     7.8500     4.8960 nb         1 4TS      -0.295000
      6 CAT        -21.8740    10.0040     4.5360 ca         1 4TS      -0.092000
      7 CAS        -23.1340    10.2670     3.9740 ca         1 4TS       0.109000
      8 ClA        -24.4620    10.7870     5.0040 cl         1 4TS      -0.214000
      9 CAR        -23.3380    10.1150     2.5940 ca         1 4TS      -0.102000
     10 CAQ        -22.2730     9.7070     1.7710 ca         1 4TS      -0.103000
     11 CAP        -21.0100     9.4530     2.3330 ca         1 4TS      -0.106000
     12 CAG        -20.7910     9.5880     3.7250 cp         1 4TS       0.006000
     13 NAH        -19.1270    11.6460     4.9760 nv         1 4TS      -1.071900
     14 C2         -17.0320     8.9220     5.4270 ca         1 4TS       0.415900
     15 NAI        -15.8140     8.7190     5.9740 nv         1 4TS      -1.055900
     16 CAJ        -19.4850     6.7800     3.7730 c3         1 4TS      -0.134700
     17 CAK        -20.1640     5.9140     4.8480 c3         1 4TS       0.171600
     18 OAL        -21.2750     6.6550     5.3720 os         1 4TS      -0.463000
     19 CAM        -22.0610     5.9510     6.3460 c3         1 4TS       0.166600
     20 CAN        -23.2370     6.8600     6.7510 c3         1 4TS      -0.076400
     21 CAO        -24.1830     7.2110     5.5860 c3         1 4TS       0.166600
     22 OAV        -24.8280     6.0040     5.1420 os         1 4TS      -0.353100
     23 CAW        -25.6970     5.9940     4.0700 ca         1 4TS       0.151100
     24 CAX        -26.0230     7.1610     3.3430 ca         1 4TS      -0.173500
     25 CAY        -26.9130     7.0870     2.2570 ca         1 4TS      -0.076500
     26 CAZ        -27.4790     5.8540     1.8930 ca         1 4TS      -0.153000
     27 CBA        -27.1570     4.6920     2.6140 ca         1 4TS      -0.076500
     28 CBB        -26.2670     4.7650     3.7000 ca         1 4TS      -0.173500
     29 H1         -21.7300    10.1180     5.6060 ha         1 4TS       0.139000
     30 H2         -24.3150    10.3160     2.1620 ha         1 4TS       0.128000
     31 H3         -22.4260     9.5940     0.7000 ha         1 4TS       0.118000
     32 H4         -20.1890     9.1500     1.6880 ha         1 4TS       0.119000
     33 H5         -18.4490    12.3680     5.2030 hn         1 4TS       0.492000
     34 H6         -19.8960    11.9150     4.3690 hn         1 4TS       0.492000
     35 H7         -15.3290     7.8520     5.7590 hn         1 4TS       0.488000
     36 H8         -15.2350     9.5300     6.1800 hn         1 4TS       0.488000
     37 H9         -20.2200     7.0150     2.9980 hc         1 4TS       0.066700
     38 H10        -18.7210     6.1710     3.2760 hc         1 4TS       0.066700
     39 H11        -20.5080     4.9770     4.3910 h1         1 4TS       0.031200
     40 H12        -19.4450     5.6700     5.6420 h1         1 4TS       0.031200
     41 H13        -22.4450     5.0090     5.9320 h1         1 4TS       0.027700
     42 H14        -21.4580     5.7170     7.2330 h1         1 4TS       0.027700
     43 H15        -22.8370     7.7890     7.1750 hc         1 4TS       0.055700
     44 H16        -23.8110     6.3730     7.5470 hc         1 4TS       0.055700
     45 H17        -23.6070     7.6650     4.7700 h1         1 4TS       0.043700
     46 H18        -24.9290     7.9380     5.9330 h1         1 4TS       0.043700
     47 H19        -25.6010     8.1270     3.6040 ha         1 4TS       0.122000
     48 H20        -27.1630     7.9860     1.6970 ha         1 4TS       0.108000
     49 H21        -28.1670     5.7980     1.0520 ha         1 4TS       0.112000
     50 H22        -27.5950     3.7360     2.3320 ha         1 4TS       0.108000
     51 H23        -26.0180     3.8660     4.2570 ha         1 4TS       0.122000
@<TRIPOS>BOND
     1     1     2 ar  
     2     1     5 ar  
     3     1    16 1   
     4     2     3 ar  
     5     2    12 1   
     6     3     4 ar  
     7     3    13 1   
     8     4    14 ar  
     9     5    14 ar  
    10     6     7 ar  
    11     6    12 ar  
    12     6    29 1   
    13     7     8 1   
    14     7     9 ar  
    15     9    10 ar  
    16     9    30 1   
    17    10    11 ar  
    18    10    31 1   
    19    11    12 ar  
    20    11    32 1   
    21    13    33 1   
    22    13    34 1   
    23    14    15 1   
    24    15    35 1   
    25    15    36 1   
    26    16    17 1   
    27    16    37 1   
    28    16    38 1   
    29    17    18 1   
    30    17    39 1   
    31    17    40 1   
    32    18    19 1   
    33    19    20 1   
    34    19    41 1   
    35    19    42 1   
    36    20    21 1   
    37    20    43 1   
    38    20    44 1   
    39    21    22 1   
    40    21    45 1   
    41    21    46 1   
    42    22    23 1   
    43    23    24 ar  
    44    23    28 ar  
    45    24    25 ar  
    46    24    47 1   
    47    25    26 ar  
    48    25    48 1   
    49    26    27 ar  
    50    26    49 1   
    51    27    28 ar  
    52    27    50 1   
    53    28    51 1   
@<TRIPOS>SUBSTRUCTURE
     1 4TS         1 TEMP              0 ****  ****    0 ROOT
