@<TRIPOS>MOLECULE
4TS
   51    53     1     0     0
SMALL
bcc


@<TRIPOS>ATOM
      1 C4         -19.2300     7.9100     4.2170 ca         1 4TS       0.547600
      2 C5         -19.7310     9.1970     4.1070 cp         1 4TS      -0.399600
      3 C6         -18.8840    10.2260     4.5900 ca         1 4TS       0.756200
      4 N1         -17.6940     9.9650     5.1180 nb         1 4TS      -0.859000
      5 N3         -18.0330     7.6460     4.7450 nb         1 4TS      -0.821000
      6 CAT        -22.0760     9.9790     4.3740 ca         1 4TS      -0.110000
      7 CAS        -23.3080    10.3120     3.8370 ca         1 4TS       0.017400
      8 CLA        -24.5640    10.8730     4.8950 cl         1 4TS      -0.122400
      9 CAR        -23.5660    10.1930     2.4810 ca         1 4TS      -0.120000
     10 CAQ        -22.5500     9.7400     1.6510 ca         1 4TS      -0.121000
     11 CAP        -21.3050     9.4180     2.1710 ca         1 4TS      -0.124000
     12 CAG        -21.0560     9.5250     3.5380 cp         1 4TS       0.006000
     13 NAH        -19.2600    11.5180     4.5530 nv         1 4TS      -0.961500
     14 C2         -17.3250     8.6870     5.1750 ca         1 4TS       0.941900
     15 NAI        -16.1290     8.4230     5.7500 nv         1 4TS      -0.945500
     16 CAJ        -20.0070     6.6970     3.7890 c3         1 4TS      -0.134700
     17 CAK        -20.5030     5.8930     4.9790 c3         1 4TS       0.148400
     18 OAL        -21.3950     6.6860     5.7180 os         1 4TS      -0.416600
     19 CAM        -22.0520     5.9930     6.7500 c3         1 4TS       0.143400
     20 CAN        -23.2550     6.7990     7.2070 c3         1 4TS      -0.076400
     21 CAO        -24.1880     7.1910     6.0790 c3         1 4TS       0.143400
     22 OAV        -24.5900     6.0150     5.3950 os         1 4TS      -0.329900
     23 CAW        -25.2180     6.1330     4.2100 ca         1 4TS       0.151100
     24 CAX        -25.6950     7.3360     3.6920 ca         1 4TS      -0.191500
     25 CAY        -26.3210     7.3510     2.4500 ca         1 4TS      -0.094500
     26 CAZ        -26.4860     6.1870     1.7180 ca         1 4TS      -0.171000
     27 CBA        -26.0170     4.9880     2.2440 ca         1 4TS      -0.094500
     28 CBB        -25.3870     4.9560     3.4760 ca         1 4TS      -0.191500
     29 H1         -21.9060    10.0630     5.4400 ha         1 4TS       0.157000
     30 H2         -24.5370    10.4470     2.0790 ha         1 4TS       0.146000
     31 H3         -22.7340     9.6440     0.5900 ha         1 4TS       0.136000
     32 H4         -20.5170     9.0770     1.5110 ha         1 4TS       0.137000
     33 H5         -18.5710    12.2190     4.7690 hn         1 4TS       0.436800
     34 H6         -20.0410    11.8110     3.9930 hn         1 4TS       0.436800
     35 H7         -15.7280     7.5130     5.6050 hn         1 4TS       0.432800
     36 H8         -15.4810     9.1830     5.8690 hn         1 4TS       0.432800
     37 H9         -20.8530     6.9600     3.1550 hc         1 4TS       0.066700
     38 H10        -19.3510     6.0520     3.2000 hc         1 4TS       0.066700
     39 H11        -21.0020     4.9850     4.6160 h1         1 4TS       0.031200
     40 H12        -19.6530     5.5700     5.5950 h1         1 4TS       0.031200
     41 H13        -22.3780     5.0040     6.4020 h1         1 4TS       0.027700
     42 H14        -21.3780     5.8190     7.5990 h1         1 4TS       0.027700
     43 H15        -22.9310     7.7200     7.6990 hc         1 4TS       0.055700
     44 H16        -23.7900     6.2180     7.9620 hc         1 4TS       0.055700
     45 H17        -23.6790     7.8720     5.3920 h1         1 4TS       0.043700
     46 H18        -25.0600     7.7210     6.4790 h1         1 4TS       0.043700
     47 H19        -25.5950     8.2630     4.2380 ha         1 4TS       0.140000
     48 H20        -26.6820     8.2950     2.0600 ha         1 4TS       0.126000
     49 H21        -26.9740     6.2090     0.7520 ha         1 4TS       0.130000
     50 H22        -26.1360     4.0670     1.6880 ha         1 4TS       0.126000
     51 H23        -25.0150     4.0220     3.8790 ha         1 4TS       0.140000
@<TRIPOS>BOND
     1     1     2 ar  
     2     1     5 ar  
     3     1    16 1   
     4     2     3 ar  
     5     2    12 1   
     6     3     4 ar  
     7     3    13 1   
     8     4    14 ar  
     9     5    14 ar  
    10     6     7 ar  
    11     6    12 ar  
    12     6    29 1   
    13     7     8 1   
    14     7     9 ar  
    15     9    10 ar  
    16     9    30 1   
    17    10    11 ar  
    18    10    31 1   
    19    11    12 ar  
    20    11    32 1   
    21    13    33 1   
    22    13    34 1   
    23    14    15 1   
    24    15    35 1   
    25    15    36 1   
    26    16    17 1   
    27    16    37 1   
    28    16    38 1   
    29    17    18 1   
    30    17    39 1   
    31    17    40 1   
    32    18    19 1   
    33    19    20 1   
    34    19    41 1   
    35    19    42 1   
    36    20    21 1   
    37    20    43 1   
    38    20    44 1   
    39    21    22 1   
    40    21    45 1   
    41    21    46 1   
    42    22    23 1   
    43    23    24 ar  
    44    23    28 ar  
    45    24    25 ar  
    46    24    47 1   
    47    25    26 ar  
    48    25    48 1   
    49    26    27 ar  
    50    26    49 1   
    51    27    28 ar  
    52    27    50 1   
    53    28    51 1   
@<TRIPOS>SUBSTRUCTURE
     1 4TS         1 TEMP              0 ****  ****    0 ROOT
