@<TRIPOS>MOLECULE
4TT
   30    33     1     0     0
SMALL
abcg2


@<TRIPOS>ATOM
      1 C5          -1.8150    -0.4650     0.0460 ca         1 4TT      -0.105800
      2 C6           0.0970    -2.2070     0.0930 c3         1 4TT      -0.004200
      3 C7           2.7190    -0.3130     0.1370 cc         1 4TT      -0.166300
      4 C10         -2.9920    -1.2240     0.0730 ca         1 4TT      -0.056000
      5 C13          3.8780     0.4760     0.0650 cc         1 4TT       0.239900
      6 C15         -3.1330     1.6070    -0.0100 ca         1 4TT      -0.134000
      7 C17         -4.2770     0.8320     0.0180 ca         1 4TT      -0.084000
      8 N4          -0.6380     1.4310    -0.0160 na         1 4TT      -0.231700
      9 C9          -1.9090     0.9410     0.0050 ca         1 4TT      -0.032200
     10 C16         -4.2090    -0.5710     0.0600 ca         1 4TT      -0.143000
     11 C1           0.2590     0.3860     0.0130 cd         1 4TT       0.007700
     12 C3           1.6860     0.6020     0.0150 cd         1 4TT      -0.088800
     13 N8           2.2750     1.8140    -0.1110 na         1 4TT      -0.012200
     14 N14          3.5990     1.7580    -0.0830 nd         1 4TT      -0.511800
     15 C2          -0.4270    -0.8060     0.0490 cc         1 4TT      -0.089400
     16 C11          1.4890    -2.4420    -0.4860 c3         1 4TT      -0.071400
     17 C12          2.6280    -1.7940     0.2980 c3         1 4TT       0.007900
     18 H6           0.0770    -2.5720     1.1260 hc         1 4TT       0.047200
     19 H6A         -0.6060    -2.8440    -0.4500 hc         1 4TT       0.047200
     20 H10         -2.9520    -2.3060     0.1060 ha         1 4TT       0.114000
     21 H13          4.9050     0.1430     0.1150 h4         1 4TT       0.037100
     22 H15         -3.1880     2.6870    -0.0420 ha         1 4TT       0.114000
     23 H17         -5.2450     1.3160     0.0080 ha         1 4TT       0.111000
     24 HN4         -0.4130     2.4110    -0.0340 hn         1 4TT       0.343000
     25 H16         -5.1260    -1.1450     0.0810 ha         1 4TT       0.112000
     26 HN8          1.8330     2.7110    -0.2340 hn         1 4TT       0.364000
     27 H11          1.6580    -3.5210    -0.5000 hc         1 4TT       0.044700
     28 H11A         1.5220    -2.1120    -1.5280 hc         1 4TT       0.044700
     29 H12          3.5760    -2.2320    -0.0220 hc         1 4TT       0.046700
     30 H12A         2.5240    -2.0540     1.3570 hc         1 4TT       0.046700
@<TRIPOS>BOND
     1     1     4 ar  
     2     1     9 ar  
     3     1    15 1   
     4     2    15 1   
     5     2    16 1   
     6     2    18 1   
     7     2    19 1   
     8     3     5 1   
     9     3    12 2   
    10     3    17 1   
    11     4    10 ar  
    12     4    20 1   
    13     5    14 2   
    14     5    21 1   
    15     6     7 ar  
    16     6     9 ar  
    17     6    22 1   
    18     7    10 ar  
    19     7    23 1   
    20     8     9 1   
    21     8    11 1   
    22     8    24 1   
    23    10    25 1   
    24    11    12 1   
    25    11    15 2   
    26    12    13 1   
    27    13    14 1   
    28    13    26 1   
    29    16    17 1   
    30    16    27 1   
    31    16    28 1   
    32    17    29 1   
    33    17    30 1   
@<TRIPOS>SUBSTRUCTURE
     1 4TT         1 TEMP              0 ****  ****    0 ROOT
