@<TRIPOS>MOLECULE
4TT
   30    33     1     0     0
SMALL
No Charge or Current Charge


@<TRIPOS>ATOM
      1 C5          -1.8160    -0.4250     0.0460 ca         1 4TT      -0.105800
      2 C6           0.0920    -2.2040     0.1370 c3         1 4TT      -0.004200
      3 C7           2.6690    -0.3100     0.1260 cc         1 4TT      -0.166300
      4 C10         -2.9610    -1.2360     0.1160 ca         1 4TT      -0.056000
      5 C13          3.8690     0.4270     0.1220 cc         1 4TT       0.239900
      6 C15         -3.1500     1.5890    -0.0670 ca         1 4TT      -0.134000
      7 C17         -4.3190     0.8020    -0.0030 ca         1 4TT      -0.084000
      8 N4          -0.6570     1.5130    -0.0830 na         1 4TT      -0.231700
      9 C9          -1.9100     0.9370    -0.0400 ca         1 4TT      -0.032200
     10 C16         -4.2240    -0.6060     0.0900 ca         1 4TT      -0.143000
     11 C1           0.2560     0.4370    -0.0070 cd         1 4TT       0.007700
     12 C3           1.6860     0.6330     0.0210 cd         1 4TT      -0.088800
     13 N8           2.3360     1.8720    -0.0390 na         1 4TT      -0.012200
     14 N14          3.7210     1.7350     0.0240 nd         1 4TT      -0.511800
     15 C2          -0.4210    -0.7870     0.0530 cc         1 4TT      -0.089400
     16 C11          1.4580    -2.4530    -0.5230 c3         1 4TT      -0.071400
     17 C12          2.6290    -1.8090     0.2310 c3         1 4TT       0.007900
     18 H6           0.1350    -2.5140     1.1880 hc         1 4TT       0.047200
     19 H6A         -0.6310    -2.8730    -0.3450 hc         1 4TT       0.047200
     20 H10         -2.8840    -2.3180     0.1900 ha         1 4TT       0.114000
     21 H13          4.8730     0.0280     0.1900 h4         1 4TT       0.037100
     22 H15         -3.2130     2.6730    -0.1350 ha         1 4TT       0.114000
     23 H17         -5.2960     1.2790    -0.0220 ha         1 4TT       0.111000
     24 HN4         -0.4450     2.5020    -0.1360 hn         1 4TT       0.343000
     25 H16         -5.1280    -1.2080     0.1410 ha         1 4TT       0.112000
     26 HN8          1.8970     2.7870    -0.1190 hn         1 4TT       0.364000
     27 H11          1.6290    -3.5360    -0.5620 hc         1 4TT       0.044700
     28 H11A         1.4420    -2.1000    -1.5610 hc         1 4TT       0.044700
     29 H12          3.5630    -2.2210    -0.1690 hc         1 4TT       0.046700
     30 H12A         2.5930    -2.1050     1.2870 hc         1 4TT       0.046700
@<TRIPOS>BOND
     1     1     4 ar  
     2     1     9 ar  
     3     1    15 1   
     4     2    15 1   
     5     2    16 1   
     6     2    18 1   
     7     2    19 1   
     8     3     5 1   
     9     3    12 2   
    10     3    17 1   
    11     4    10 ar  
    12     4    20 1   
    13     5    14 2   
    14     5    21 1   
    15     6     7 ar  
    16     6     9 ar  
    17     6    22 1   
    18     7    10 ar  
    19     7    23 1   
    20     8     9 1   
    21     8    11 1   
    22     8    24 1   
    23    10    25 1   
    24    11    12 1   
    25    11    15 2   
    26    12    13 1   
    27    13    14 1   
    28    13    26 1   
    29    16    17 1   
    30    16    27 1   
    31    16    28 1   
    32    17    29 1   
    33    17    30 1   
@<TRIPOS>SUBSTRUCTURE
     1 4TT         1 TEMP              0 ****  ****    0 ROOT
