@<TRIPOS>MOLECULE
4TU
   22    23     1     0     0
SMALL
bcc


@<TRIPOS>ATOM
      1 C1           0.1630    -1.3070     0.0080 ca         1 4TU      -0.132000
      2 C2           1.5550    -1.3180    -0.0000 ca         1 4TU      -0.096000
      3 C3           1.6160     1.0970    -0.0140 ca         1 4TU      -0.081000
      4 C4           0.2370     1.1060    -0.0060 ca         1 4TU      -0.141300
      5 C5          -0.4940    -0.0820     0.0060 ca         1 4TU       0.088600
      6 C6           2.2670    -0.1310    -0.0110 ca         1 4TU      -0.002600
      7 C8          -0.6830     2.2880    -0.0170 c5         1 4TU      -0.035100
      8 C9          -2.0830     1.6590     0.0560 c5         1 4TU       0.099000
      9 N10         -1.8580     0.2090     0.0150 n          1 4TU      -0.396000
     10 N11         -4.1210    -0.2000     0.1050 nt         1 4TU      -0.675000
     11 O12         -2.6580    -1.9210     0.0500 o          1 4TU      -0.626100
     12 CL1          4.0040    -0.1730    -0.0200 cl         1 4TU      -0.116400
     13 H1          -0.3740    -2.2400     0.0190 ha         1 4TU       0.174000
     14 H2           2.0760    -2.2660     0.0030 ha         1 4TU       0.149000
     15 H3           2.1760     2.0230    -0.0240 ha         1 4TU       0.147000
     16 H4          -0.5010     2.9540     0.8270 hc         1 4TU       0.062700
     17 H5          -2.5970     1.9340     0.9800 h1         1 4TU       0.046200
     18 H6          -4.8830    -0.8440    -0.0200 hn         1 4TU       0.314000
     19 H7          -4.3270     0.7630    -0.0990 hn         1 4TU       0.314000
     20 H8          -0.5600     2.8810    -0.9240 hc         1 4TU       0.062700
     21 H9          -2.7030     1.9760    -0.7840 h1         1 4TU       0.046200
     22 C7          -2.8690    -0.7150     0.0450 c          1 4TU       0.797100
@<TRIPOS>BOND
     1     1     2 ar  
     2     1     5 ar  
     3     1    13 1   
     4     2     6 ar  
     5     2    14 1   
     6     3     4 ar  
     7     3     6 ar  
     8     3    15 1   
     9     4     5 ar  
    10     4     7 1   
    11     5     9 1   
    12     6    12 1   
    13     7     8 1   
    14     7    16 1   
    15     7    20 1   
    16     8     9 1   
    17     8    17 1   
    18     8    21 1   
    19     9    22 1   
    20    10    18 1   
    21    10    19 1   
    22    10    22 1   
    23    11    22 2   
@<TRIPOS>SUBSTRUCTURE
     1 4TU         1 TEMP              0 ****  ****    0 ROOT
