@<TRIPOS>MOLECULE
4TU
   22    23     1     0     0
SMALL
No Charge or Current Charge


@<TRIPOS>ATOM
      1 C1           0.1930    -1.3330     0.0100 ca         1 4TU      -0.114000
      2 C2           1.6030    -1.3440    -0.0010 ca         1 4TU      -0.078000
      3 C3           1.6390     1.1010    -0.0140 ca         1 4TU      -0.063000
      4 C4           0.2340     1.0970    -0.0030 ca         1 4TU      -0.141300
      5 C5          -0.4690    -0.0900     0.0090 ca         1 4TU      -0.004000
      6 C6           2.3220    -0.1300    -0.0130 ca         1 4TU       0.089000
      7 C8          -0.6710     2.3140    -0.0020 c5         1 4TU      -0.035100
      8 C9          -2.1200     1.6730     0.0130 c5         1 4TU       0.099000
      9 N10         -1.8560     0.2050     0.0180 n          1 4TU      -0.236400
     10 N11         -4.1760    -0.2200     0.0390 nt         1 4TU      -0.608000
     11 O12         -2.7770    -1.9350     0.0370 o          1 4TU      -0.626100
     12 Cl1          4.0810    -0.1550    -0.0270 cl         1 4TU      -0.208000
     13 H1          -0.3500    -2.2730     0.0190 ha         1 4TU       0.156000
     14 H2           2.1390    -2.2900    -0.0000 ha         1 4TU       0.131000
     15 H3           2.1910     2.0370    -0.0230 ha         1 4TU       0.129000
     16 H4          -0.5060     2.9480     0.8760 hc         1 4TU       0.062700
     17 H5          -2.6780     1.9800     0.9070 h1         1 4TU       0.046200
     18 H6          -4.9580    -0.8560     0.0490 hn         1 4TU       0.314000
     19 H7          -4.3250     0.7760     0.0350 hn         1 4TU       0.314000
     20 H8          -0.5200     2.9390    -0.8890 hc         1 4TU       0.062700
     21 H9          -2.6920     1.9710    -0.8760 h1         1 4TU       0.046200
     22 C7          -2.9240    -0.7250     0.0320 c          1 4TU       0.663100
@<TRIPOS>BOND
     1     1     2 ar  
     2     1     5 ar  
     3     1    13 1   
     4     2     6 ar  
     5     2    14 1   
     6     3     4 ar  
     7     3     6 ar  
     8     3    15 1   
     9     4     5 ar  
    10     4     7 1   
    11     5     9 1   
    12     6    12 1   
    13     7     8 1   
    14     7    16 1   
    15     7    20 1   
    16     8     9 1   
    17     8    17 1   
    18     8    21 1   
    19     9    22 1   
    20    10    18 1   
    21    10    19 1   
    22    10    22 1   
    23    11    22 2   
@<TRIPOS>SUBSTRUCTURE
     1 4TU         1 TEMP              0 ****  ****    0 ROOT
