@<TRIPOS>MOLECULE
4TV
   54    58     1     0     0
SMALL
bcc


@<TRIPOS>ATOM
      1 C1           7.5290     1.5920     1.0040 c3         1 4TV       0.043600
      2 C3           5.3540     0.3900     0.7810 cc         1 4TV      -0.124300
      3 C4           4.1910     0.6130     0.0640 cd         1 4TV      -0.227300
      4 C5           4.4560     1.8180    -0.6170 cd         1 4TV       0.327200
      5 C7           2.9870    -0.2110     0.0290 ca         1 4TV       0.029000
      6 C8           2.7570    -1.1940     0.9920 ca         1 4TV      -0.130000
      7 C11          0.8880    -0.8250    -1.0100 ca         1 4TV      -0.107500
      8 C12          2.0280    -0.0430    -0.9740 ca         1 4TV      -0.130000
      9 C16         -2.4870    -4.5410    -0.4700 ca         1 4TV       0.426200
     10 C17         -2.8200    -3.1990    -0.3550 ca         1 4TV      -0.149900
     11 C19         -1.8290    -2.2230    -0.1930 ca         1 4TV       0.234600
     12 C21         -1.7480    -0.1870     1.1620 c6         1 4TV       0.234300
     13 C23         -2.1940     2.0210     0.0290 c5         1 4TV      -0.134000
     14 C24         -3.4820     2.4480     0.7480 c5         1 4TV      -0.090400
     15 C27         -1.5890     3.3610    -0.3840 c          1 4TV       0.706500
     16 O28         -0.4400     3.5410    -0.7570 o          1 4TV      -0.626500
     17 C30         -3.0160    -0.1720    -0.9280 c6         1 4TV       0.234300
     18 N2           6.1880     1.4030     0.5070 na         1 4TV       0.113400
     19 N6           5.6590     2.2810    -0.3390 nc         1 4TV      -0.526800
     20 C9           1.6210    -1.9850     0.9490 ca         1 4TV      -0.107500
     21 C10          0.6660    -1.8120    -0.0510 cp         1 4TV      -0.047000
     22 C13         -0.5050    -2.7090    -0.1390 cp         1 4TV      -0.171300
     23 C14         -0.2880    -4.0770    -0.2300 ca         1 4TV       0.421200
     24 N15         -1.2430    -4.9820    -0.4010 nb         1 4TV      -0.669000
     25 N20         -2.0730    -0.8690    -0.0790 nh         1 4TV      -0.718000
     26 C22         -1.2320     1.2180     0.8980 c6         1 4TV      -0.072900
     27 C25         -3.8400     3.7960     0.1210 c5         1 4TV       0.100000
     28 N26         -2.5480     4.2950    -0.2940 ns         1 4TV      -0.579900
     29 C29         -2.4850     1.2190    -1.2510 c6         1 4TV      -0.072900
     30 H1           7.6160     2.5620     1.4900 h1         1 4TV       0.056033
     31 H2           7.7500     0.8140     1.7290 h1         1 4TV       0.056033
     32 H3           8.2490     1.5320     0.1910 h1         1 4TV       0.056033
     33 H4           5.6390    -0.4130     1.4420 h4         1 4TV       0.170000
     34 H5           3.8090     2.3650    -1.2870 h4         1 4TV       0.045100
     35 H6           3.4700    -1.3430     1.7940 ha         1 4TV       0.132500
     36 H7           0.1690    -0.6780    -1.8060 ha         1 4TV       0.134000
     37 H8           2.1770     0.6980    -1.7490 ha         1 4TV       0.132500
     38 H9          -3.2720    -5.2780    -0.5980 h4         1 4TV       0.031100
     39 H10         -2.6360    -0.1520     1.8090 h1         1 4TV       0.042200
     40 H11         -0.9940    -0.7560     1.7050 h1         1 4TV       0.042200
     41 H12         -4.2950     1.7270     0.6620 hc         1 4TV       0.058700
     42 H13         -3.2800     2.5830     1.8130 hc         1 4TV       0.058700
     43 H14         -3.1470    -0.7280    -1.8570 h1         1 4TV       0.042200
     44 H15         -4.0060    -0.0830    -0.4660 h1         1 4TV       0.042200
     45 H16          1.4700    -2.7400     1.7110 ha         1 4TV       0.134000
     46 H17          0.7300    -4.4510    -0.1960 h4         1 4TV       0.026100
     47 H18         -1.0690     1.7250     1.8530 hc         1 4TV       0.062200
     48 H19         -0.2660     1.1500     0.3940 hc         1 4TV       0.062200
     49 H20         -4.5180     3.6890    -0.7310 h1         1 4TV       0.043200
     50 H21         -4.3120     4.4720     0.8340 h1         1 4TV       0.043200
     51 H22         -2.4100     5.2370    -0.6270 hn         1 4TV       0.328500
     52 H23         -3.2210     1.7360    -1.8740 hc         1 4TV       0.062200
     53 H24         -1.5680     1.1330    -1.8410 hc         1 4TV       0.062200
     54 CL1         -4.5030    -2.8030    -0.3120 cl         1 4TV      -0.106400
@<TRIPOS>BOND
     1     1    18 1   
     2     1    30 1   
     3     1    31 1   
     4     1    32 1   
     5     2     3 2   
     6     2    18 1   
     7     2    33 1   
     8     3     4 1   
     9     3     5 1   
    10     4    19 2   
    11     4    34 1   
    12     5     6 ar  
    13     5     8 ar  
    14     6    20 ar  
    15     6    35 1   
    16     7     8 ar  
    17     7    21 ar  
    18     7    36 1   
    19     8    37 1   
    20     9    10 ar  
    21     9    24 ar  
    22     9    38 1   
    23    10    11 ar  
    24    10    54 1   
    25    11    22 ar  
    26    11    25 1   
    27    12    25 1   
    28    12    26 1   
    29    12    39 1   
    30    12    40 1   
    31    13    14 1   
    32    13    15 1   
    33    13    26 1   
    34    13    29 1   
    35    14    27 1   
    36    14    41 1   
    37    14    42 1   
    38    15    16 2   
    39    15    28 1   
    40    17    25 1   
    41    17    29 1   
    42    17    43 1   
    43    17    44 1   
    44    18    19 1   
    45    20    21 ar  
    46    20    45 1   
    47    21    22 1   
    48    22    23 ar  
    49    23    24 ar  
    50    23    46 1   
    51    26    47 1   
    52    26    48 1   
    53    27    28 1   
    54    27    49 1   
    55    27    50 1   
    56    28    51 1   
    57    29    52 1   
    58    29    53 1   
@<TRIPOS>SUBSTRUCTURE
     1 4TV         1 TEMP              0 ****  ****    0 ROOT
