@<TRIPOS>MOLECULE
4TV
   54    58     1     0     0
SMALL
No Charge or Current Charge


@<TRIPOS>ATOM
      1 C1           7.3830     1.8590     1.1090 c3         1 4TV       0.072900
      2 C3           5.2490     0.4850     0.8420 cc         1 4TV      -0.157000
      3 C4           4.2100     0.5700    -0.0470 cd         1 4TV      -0.162000
      4 C5           4.5140     1.6560    -0.9040 cd         1 4TV       0.261900
      5 C7           3.0170    -0.2960    -0.0940 ca         1 4TV       0.029000
      6 C8           2.8470    -1.3410     0.8390 ca         1 4TV      -0.112000
      7 C11          0.8830    -0.9200    -1.1130 ca         1 4TV      -0.089500
      8 C12          2.0220    -0.0990    -1.0740 ca         1 4TV      -0.112000
      9 C16         -2.6450    -4.5920    -0.2930 ca         1 4TV       0.360900
     10 C17         -2.9240    -3.2190    -0.2240 ca         1 4TV       0.007000
     11 C19         -1.8410    -2.3040    -0.1870 ca         1 4TV       0.373000
     12 C21         -1.8260    -0.2160     1.2290 c6         1 4TV       0.234300
     13 C23         -2.1250     2.0800     0.0740 c5         1 4TV      -0.134000
     14 C24         -3.4790     2.4810     0.7550 c5         1 4TV      -0.090400
     15 C27         -1.4900     3.4560    -0.2200 c          1 4TV       0.564000
     16 O28         -0.3230     3.7370    -0.4420 o          1 4TV      -0.551000
     17 C30         -2.8860    -0.1440    -1.0430 c6         1 4TV       0.234300
     18 N2           6.1060     1.5150     0.4680 na         1 4TV       0.134800
     19 N6           5.6590     2.2440    -0.6120 nc         1 4TV      -0.526800
     20 C9           1.7060    -2.1610     0.7980 ca         1 4TV      -0.089500
     21 C10          0.6980    -1.9570    -0.1710 cp         1 4TV      -0.047000
     22 C13         -0.5180    -2.8270    -0.2060 cp         1 4TV      -0.106000
     23 C14         -0.3670    -4.2300    -0.2670 ca         1 4TV       0.355900
     24 N15         -1.3940    -5.1030    -0.3150 nb         1 4TV      -0.669000
     25 N20         -2.0670    -0.9050    -0.0640 nh         1 4TV      -0.856400
     26 C22         -1.2320     1.1960     1.0000 c6         1 4TV      -0.072900
     27 C25         -3.8120     3.8340     0.0750 c5         1 4TV       0.100000
     28 N26         -2.4710     4.3920    -0.0460 ns         1 4TV      -0.512900
     29 C29         -2.3120     1.2810    -1.2580 c6         1 4TV      -0.072900
     30 H1           7.3390     2.8870     1.4860 h1         1 4TV       0.056033
     31 H2           7.5750     1.1750     1.9440 h1         1 4TV       0.056033
     32 H3           8.1950     1.7730     0.3770 h1         1 4TV       0.056033
     33 H4           5.4510    -0.1810     1.6710 h4         1 4TV       0.152000
     34 H5           3.9330     2.0360    -1.7350 h4         1 4TV       0.045100
     35 H6           3.5950    -1.5230     1.6050 ha         1 4TV       0.114500
     36 H7           0.1310    -0.7520    -1.8790 ha         1 4TV       0.116000
     37 H8           2.1200     0.6920    -1.8110 ha         1 4TV       0.114500
     38 H9          -3.4580    -5.3170    -0.3180 h4         1 4TV       0.031100
     39 H10         -2.7670    -0.1340     1.7920 h1         1 4TV       0.042200
     40 H11         -1.1260    -0.7970     1.8480 h1         1 4TV       0.042200
     41 H12         -4.2790     1.7440     0.6350 hc         1 4TV       0.058700
     42 H13         -3.3480     2.6320     1.8330 hc         1 4TV       0.058700
     43 H14         -2.9070    -0.6680    -2.0100 h1         1 4TV       0.042200
     44 H15         -3.9250    -0.0670    -0.6920 h1         1 4TV       0.042200
     45 H16          1.5950    -2.9540     1.5350 ha         1 4TV       0.116000
     46 H17          0.6300    -4.6700    -0.2880 h4         1 4TV       0.026100
     47 H18         -1.0850     1.6910     1.9690 hc         1 4TV       0.062200
     48 H19         -0.2310     1.0930     0.5610 hc         1 4TV       0.062200
     49 H20         -4.2780     3.6910    -0.9090 h1         1 4TV       0.043200
     50 H21         -4.4790     4.4520     0.6910 h1         1 4TV       0.043200
     51 H22         -2.2430     5.3710    -0.1760 hn         1 4TV       0.328500
     52 H23         -2.9670     1.8330    -1.9450 hc         1 4TV       0.062200
     53 H24         -1.3440     1.1980    -1.7710 hc         1 4TV       0.062200
     54 Cl1         -4.6230    -2.7120    -0.1280 cl         1 4TV      -0.198000
@<TRIPOS>BOND
     1     1    18 1   
     2     1    30 1   
     3     1    31 1   
     4     1    32 1   
     5     2     3 2   
     6     2    18 1   
     7     2    33 1   
     8     3     4 1   
     9     3     5 1   
    10     4    19 2   
    11     4    34 1   
    12     5     6 ar  
    13     5     8 ar  
    14     6    20 ar  
    15     6    35 1   
    16     7     8 ar  
    17     7    21 ar  
    18     7    36 1   
    19     8    37 1   
    20     9    10 ar  
    21     9    24 ar  
    22     9    38 1   
    23    10    11 ar  
    24    10    54 1   
    25    11    22 ar  
    26    11    25 1   
    27    12    25 1   
    28    12    26 1   
    29    12    39 1   
    30    12    40 1   
    31    13    14 1   
    32    13    15 1   
    33    13    26 1   
    34    13    29 1   
    35    14    27 1   
    36    14    41 1   
    37    14    42 1   
    38    15    16 2   
    39    15    28 1   
    40    17    25 1   
    41    17    29 1   
    42    17    43 1   
    43    17    44 1   
    44    18    19 1   
    45    20    21 ar  
    46    20    45 1   
    47    21    22 1   
    48    22    23 ar  
    49    23    24 ar  
    50    23    46 1   
    51    26    47 1   
    52    26    48 1   
    53    27    28 1   
    54    27    49 1   
    55    27    50 1   
    56    28    51 1   
    57    29    52 1   
    58    29    53 1   
@<TRIPOS>SUBSTRUCTURE
     1 4TV         1 TEMP              0 ****  ****    0 ROOT
