@<TRIPOS>MOLECULE
4TW
   43    45     1     0     0
SMALL
bcc


@<TRIPOS>ATOM
      1 C1           6.2820    -0.1920    -2.4420 c3         1 4TW      -0.274300
      2 S2           6.7510     0.8140    -1.0540 s6         1 4TW       1.216900
      3 O3           7.6070     0.0210    -0.1890 o          1 4TW      -0.593300
      4 O4           7.2130     2.1020    -1.5420 o          1 4TW      -0.593300
      5 N5           5.3470     1.1270    -0.2140 nu         1 4TW      -0.675500
      6 C6           4.6730     0.0700     0.4490 ca         1 4TW       0.097600
      7 C7           5.1940    -0.4500     1.6290 ca         1 4TW      -0.086000
      8 C8           4.5160    -1.4700     2.2780 ca         1 4TW      -0.113000
      9 C9           3.3170    -1.9540     1.7730 ca         1 4TW      -0.101000
     10 C10          2.7830    -1.4280     0.6030 ca         1 4TW      -0.064300
     11 C11          3.4760    -0.4220    -0.0610 ca         1 4TW      -0.147000
     12 C12          1.4730    -1.9190     0.0650 c3         1 4TW      -0.105100
     13 C13          0.3060    -1.1180     0.6030 c          1 4TW       0.662100
     14 O14          0.3610    -0.4300     1.6050 o          1 4TW      -0.561100
     15 N15         -0.8390    -1.2420    -0.1120 ns         1 4TW      -0.449100
     16 C16         -2.0400    -0.6410     0.2130 cc         1 4TW       0.058500
     17 C17         -3.2000    -0.7630    -0.4910 cd         1 4TW      -0.202000
     18 C18         -4.2660    -0.0050     0.0780 cd         1 4TW      -0.051000
     19 C19         -3.8720     0.6620     1.2030 cc         1 4TW      -0.144100
     20 S20         -2.2260     0.3890     1.5880 ss         1 4TW       0.040200
     21 C21         -5.6220     0.0420    -0.4740 ca         1 4TW       0.060000
     22 C22         -6.1040    -0.9700    -1.3110 ca         1 4TW      -0.262300
     23 C23         -7.3940    -0.8840    -1.7960 ca         1 4TW       0.431200
     24 N24         -8.2210     0.1210    -1.5080 nb         1 4TW      -0.702000
     25 C25         -7.7500     1.0520    -0.7290 ca         1 4TW       0.636500
     26 C26         -6.4830     1.0950    -0.1790 ca         1 4TW      -0.278300
     27 F27         -8.5910     2.0540    -0.4560 f          1 4TW      -0.229200
     28 H1           5.7990    -1.1000    -2.0870 h1         1 4TW       0.102367
     29 H2           5.6040     0.3720    -3.0800 h1         1 4TW       0.102367
     30 H3           7.1870    -0.4470    -2.9920 h1         1 4TW       0.102367
     31 H4           4.7390     1.7500    -0.7370 hn         1 4TW       0.431800
     32 H5           6.1100    -0.0520     2.0420 ha         1 4TW       0.165000
     33 H6           4.9190    -1.8810     3.1940 ha         1 4TW       0.144000
     34 H7           2.7920    -2.7440     2.2960 ha         1 4TW       0.137000
     35 H8           3.0800    -0.0110    -0.9830 ha         1 4TW       0.126000
     36 H9           1.4640    -1.8960    -1.0270 hc         1 4TW       0.069700
     37 H10          1.3100    -2.9630     0.3500 hc         1 4TW       0.069700
     38 H11         -0.8390    -1.8200    -0.9400 hn         1 4TW       0.325500
     39 H12         -3.2780    -1.3550    -1.3930 ha         1 4TW       0.150000
     40 H13         -4.4700     1.2860     1.8490 h4         1 4TW       0.173000
     41 H14         -5.4940    -1.8220    -1.5780 ha         1 4TW       0.145000
     42 H15         -7.7850    -1.6590    -2.4440 h4         1 4TW       0.025100
     43 H16         -6.1810     1.9290     0.4390 ha         1 4TW       0.160000
@<TRIPOS>BOND
     1     1     2 1   
     2     1    28 1   
     3     1    29 1   
     4     1    30 1   
     5     2     3 2   
     6     2     4 2   
     7     2     5 1   
     8     5     6 1   
     9     5    31 1   
    10     6     7 ar  
    11     6    11 ar  
    12     7     8 ar  
    13     7    32 1   
    14     8     9 ar  
    15     8    33 1   
    16     9    10 ar  
    17     9    34 1   
    18    10    11 ar  
    19    10    12 1   
    20    11    35 1   
    21    12    13 1   
    22    12    36 1   
    23    12    37 1   
    24    13    14 2   
    25    13    15 1   
    26    15    16 1   
    27    15    38 1   
    28    16    17 2   
    29    16    20 1   
    30    17    18 1   
    31    17    39 1   
    32    18    19 2   
    33    18    21 1   
    34    19    20 1   
    35    19    40 1   
    36    21    22 ar  
    37    21    26 ar  
    38    22    23 ar  
    39    22    41 1   
    40    23    24 ar  
    41    23    42 1   
    42    24    25 ar  
    43    25    26 ar  
    44    25    27 1   
    45    26    43 1   
@<TRIPOS>SUBSTRUCTURE
     1 4TW         1 TEMP              0 ****  ****    0 ROOT
