@<TRIPOS>MOLECULE
4TW
   43    45     1     0     0
SMALL
No Charge or Current Charge


@<TRIPOS>ATOM
      1 C1           6.6250    -0.1240    -2.1520 c3         1 4TW      -0.385100
      2 S2           5.4290     1.1910    -2.0500 s6         1 4TW       1.186100
      3 O3           5.8720     2.1820    -1.0660 o          1 4TW      -0.522500
      4 O4           5.0600     1.6000    -3.4050 o          1 4TW      -0.522500
      5 N5           4.0620     0.4790    -1.4300 nu         1 4TW      -0.869100
      6 C6           3.8890    -0.2630    -0.2590 ca         1 4TW       0.236000
      7 C7           4.7500    -0.1550     0.8540 ca         1 4TW      -0.068000
      8 C8           4.5230    -0.9280     2.0060 ca         1 4TW      -0.095000
      9 C9           3.4330    -1.8120     2.0580 ca         1 4TW      -0.083000
     10 C10          2.5630    -1.9260     0.9590 ca         1 4TW      -0.064300
     11 C11          2.7960    -1.1460    -0.1910 ca         1 4TW      -0.129000
     12 C12          1.3720    -2.8780     1.0170 c3         1 4TW      -0.105100
     13 C13          0.1530    -2.1860     1.6390 c          1 4TW       0.595100
     14 O14          0.0490    -2.0210     2.8470 o          1 4TW      -0.561100
     15 N15         -0.8000    -1.7570     0.7290 ns         1 4TW      -0.382100
     16 C16         -1.9970    -1.0870     0.9780 cc         1 4TW      -0.086400
     17 C17         -2.8370    -0.7250    -0.0430 cd         1 4TW      -0.184000
     18 C18         -4.0240    -0.0450     0.3740 cd         1 4TW      -0.051000
     19 C19         -4.0660     0.1020     1.7450 cc         1 4TW      -0.271000
     20 S20         -2.6550    -0.5890     2.5390 ss         1 4TW       0.330000
     21 C21         -5.0850     0.4470    -0.5390 ca         1 4TW       0.060000
     22 C22         -5.0060     0.2770    -1.9370 ca         1 4TW      -0.179000
     23 C23         -6.0350     0.7580    -2.7620 ca         1 4TW       0.365900
     24 N24         -7.1270     1.3930    -2.2870 nb         1 4TW      -0.702000
     25 C25         -7.2020     1.5540    -0.9530 ca         1 4TW       0.571200
     26 C26         -6.2280     1.1090    -0.0500 ca         1 4TW      -0.195000
     27 F27         -8.3060     2.1920    -0.5110 f          1 4TW      -0.229200
     28 H1           6.8040    -0.4960    -1.1390 h1         1 4TW       0.102367
     29 H2           6.2040    -0.9050    -2.7940 h1         1 4TW       0.102367
     30 H3           7.5380     0.2960    -2.5860 h1         1 4TW       0.102367
     31 H4           3.4740     0.2650    -2.2240 hn         1 4TW       0.487000
     32 H5           5.5930     0.5270     0.8430 ha         1 4TW       0.147000
     33 H6           5.1910    -0.8390     2.8600 ha         1 4TW       0.126000
     34 H7           3.2630    -2.4040     2.9550 ha         1 4TW       0.119000
     35 H8           2.1230    -1.2290    -1.0410 ha         1 4TW       0.108000
     36 H9           1.1320    -3.2160     0.0020 hc         1 4TW       0.069700
     37 H10          1.6300    -3.7480     1.6330 hc         1 4TW       0.069700
     38 H11         -0.5690    -1.9630    -0.2350 hn         1 4TW       0.325500
     39 H12         -2.6040    -0.9450    -1.0780 ha         1 4TW       0.132000
     40 H13         -4.8180     0.5660     2.3680 h4         1 4TW       0.155000
     41 H14         -4.1630    -0.2210    -2.4020 ha         1 4TW       0.127000
     42 H15         -5.9810     0.6310    -3.8430 h4         1 4TW       0.025100
     43 H16         -6.3800     1.2880     1.0070 ha         1 4TW       0.142000
@<TRIPOS>BOND
     1     1     2 1   
     2     1    28 1   
     3     1    29 1   
     4     1    30 1   
     5     2     3 2   
     6     2     4 2   
     7     2     5 1   
     8     5     6 1   
     9     5    31 1   
    10     6     7 ar  
    11     6    11 ar  
    12     7     8 ar  
    13     7    32 1   
    14     8     9 ar  
    15     8    33 1   
    16     9    10 ar  
    17     9    34 1   
    18    10    11 ar  
    19    10    12 1   
    20    11    35 1   
    21    12    13 1   
    22    12    36 1   
    23    12    37 1   
    24    13    14 2   
    25    13    15 1   
    26    15    16 1   
    27    15    38 1   
    28    16    17 2   
    29    16    20 1   
    30    17    18 1   
    31    17    39 1   
    32    18    19 2   
    33    18    21 1   
    34    19    20 1   
    35    19    40 1   
    36    21    22 ar  
    37    21    26 ar  
    38    22    23 ar  
    39    22    41 1   
    40    23    24 ar  
    41    23    42 1   
    42    24    25 ar  
    43    25    26 ar  
    44    25    27 1   
    45    26    43 1   
@<TRIPOS>SUBSTRUCTURE
     1 4TW         1 TEMP              0 ****  ****    0 ROOT
