@<TRIPOS>MOLECULE
4TX
   39    39     1     0     0
SMALL
bcc


@<TRIPOS>ATOM
      1 C8          -2.8970     1.1230     0.0360 ca         1 4TX      -0.219000
      2 C6          -0.2240     0.1990     0.0100 c3         1 4TX       0.134400
      3 C5           1.0590    -0.6080    -0.0030 c3         1 4TX      -0.084400
      4 C1           3.6430    -0.3790    -0.0160 c3         1 4TX      -0.178000
      5 C9          -4.2290     1.5440     0.0510 ca         1 4TX      -0.044300
      6 C10         -5.2310     0.5860     0.0580 ca         1 4TX      -0.179000
      7 C11         -4.9040    -0.7680     0.0450 ca         1 4TX      -0.100000
      8 O            4.4930     1.8820    -0.0350 o          1 4TX      -0.837800
      9 C            4.7940     0.6710    -0.0330 c          1 4TX       0.932600
     10 O1           5.9560     0.2130    -0.0410 o          1 4TX      -0.837800
     11 C2           3.7950    -1.2670    -1.2550 c3         1 4TX      -0.059100
     12 C3           3.8140    -1.2450     1.2360 c3         1 4TX      -0.059100
     13 C4           2.2750     0.3160    -0.0120 c3         1 4TX      -0.046400
     14 C7          -2.5770    -0.2300     0.0240 ca         1 4TX       0.165100
     15 C12         -3.5890    -1.2040     0.0280 ca         1 4TX      -0.119300
     16 C13         -3.2440    -2.6640     0.0180 c3         1 4TX      -0.028800
     17 C14         -4.5480     3.0120     0.0440 c3         1 4TX      -0.045800
     18 H13         -2.1190     1.8760     0.0350 ha         1 4TX       0.141000
     19 H12         -0.2590     0.8400     0.8990 h1         1 4TX       0.032700
     20 H11         -0.2690     0.8540    -0.8690 h1         1 4TX       0.032700
     21 H10          1.0740    -1.2590     0.8750 hc         1 4TX       0.043700
     22 H9           1.0580    -1.2560    -0.8830 hc         1 4TX       0.043700
     23 H14         -6.2720     0.8860     0.0730 ha         1 4TX       0.120000
     24 H15         -5.6970    -1.5050     0.0510 ha         1 4TX       0.120000
     25 H2           4.7850    -1.7220    -1.2800 hc         1 4TX       0.014367
     26 H3           3.0640    -2.0780    -1.2670 hc         1 4TX       0.014367
     27 H1           3.6680    -0.6940    -2.1770 hc         1 4TX       0.014367
     28 H4           3.6990    -0.6570     2.1510 hc         1 4TX       0.014367
     29 H5           3.0830    -2.0560     1.2730 hc         1 4TX       0.014367
     30 H6           4.8040    -1.6990     1.2560 hc         1 4TX       0.014367
     31 H7           2.2080     0.9700    -0.8860 hc         1 4TX       0.043200
     32 H8           2.2160     0.9760     0.8590 hc         1 4TX       0.043200
     33 H16         -2.6620    -2.9390    -0.8640 hc         1 4TX       0.038700
     34 H18         -2.6520    -2.9490     0.8900 hc         1 4TX       0.038700
     35 H17         -4.1480    -3.2720     0.0190 hc         1 4TX       0.038700
     36 H19         -4.3280     3.4580    -0.9280 hc         1 4TX       0.038033
     37 H21         -5.6000     3.1940     0.2600 hc         1 4TX       0.038033
     38 H20         -3.9560     3.5520     0.7840 hc         1 4TX       0.038033
     39 O2          -1.3170    -0.7050     0.0100 os         1 4TX      -0.328900
@<TRIPOS>BOND
     1     1     5 ar  
     2     1    14 ar  
     3     1    18 1   
     4     2     3 1   
     5     2    19 1   
     6     2    20 1   
     7     2    39 1   
     8     3    13 1   
     9     3    21 1   
    10     3    22 1   
    11     4     9 1   
    12     4    11 1   
    13     4    12 1   
    14     4    13 1   
    15     5     6 ar  
    16     5    17 1   
    17     6     7 ar  
    18     6    23 1   
    19     7    15 ar  
    20     7    24 1   
    21     8     9 1   
    22     9    10 1   
    23    11    25 1   
    24    11    26 1   
    25    11    27 1   
    26    12    28 1   
    27    12    29 1   
    28    12    30 1   
    29    13    31 1   
    30    13    32 1   
    31    14    15 ar  
    32    14    39 1   
    33    15    16 1   
    34    16    33 1   
    35    16    34 1   
    36    16    35 1   
    37    17    36 1   
    38    17    37 1   
    39    17    38 1   
@<TRIPOS>SUBSTRUCTURE
     1 4TX         1 TEMP              0 ****  ****    0 ROOT
