@<TRIPOS>MOLECULE
4TX
   39    39     1     0     0
SMALL
No Charge or Current Charge


@<TRIPOS>ATOM
      1 C8          -2.9660     1.1560    -0.0100 ca         1 4TX      -0.201000
      2 C6          -0.2010     0.2750     0.0030 c3         1 4TX       0.157600
      3 C5           1.0950    -0.5580     0.0180 c3         1 4TX      -0.084400
      4 C1           3.7470    -0.4200     0.0090 c3         1 4TX      -0.178000
      5 C9          -4.3140     1.5550    -0.0140 ca         1 4TX      -0.044300
      6 C10         -5.3240     0.5790     0.0070 ca         1 4TX      -0.161000
      7 C11         -4.9930    -0.7850     0.0360 ca         1 4TX      -0.082000
      8 O            5.3200     1.0890     1.0440 o          1 4TX      -0.732500
      9 C            4.8600     0.6880    -0.0160 c          1 4TX       0.722000
     10 O1           5.3160     1.0430    -1.0950 o          1 4TX      -0.732500
     11 C2           3.8810    -1.3510    -1.2350 c3         1 4TX      -0.059100
     12 C3           3.8860    -1.2980     1.2910 c3         1 4TX      -0.059100
     13 C4           2.3710     0.3260    -0.0040 c3         1 4TX      -0.046400
     14 C7          -2.6240    -0.2150     0.0190 ca         1 4TX       0.165100
     15 C12         -3.6450    -1.1910     0.0420 ca         1 4TX      -0.119300
     16 C13         -3.3000    -2.6760     0.0740 c3         1 4TX      -0.028800
     17 C14         -4.6740     3.0330    -0.0490 c3         1 4TX      -0.045800
     18 H13         -2.1970     1.9230    -0.0310 ha         1 4TX       0.123000
     19 H12         -0.2240     0.9330     0.8820 h1         1 4TX       0.032700
     20 H11         -0.2280     0.8950    -0.9040 h1         1 4TX       0.032700
     21 H10          1.0920    -1.1870     0.9150 hc         1 4TX       0.043700
     22 H9           1.0880    -1.2250    -0.8520 hc         1 4TX       0.043700
     23 H14         -6.3710     0.8760    -0.0000 ha         1 4TX       0.102000
     24 H15         -5.7890    -1.5270     0.0520 ha         1 4TX       0.102000
     25 H2           4.8930    -1.7690    -1.2970 hc         1 4TX       0.014367
     26 H3           3.1820    -2.1940    -1.1830 hc         1 4TX       0.014367
     27 H1           3.6790    -0.8060    -2.1650 hc         1 4TX       0.014367
     28 H4           3.6880    -0.7140     2.1980 hc         1 4TX       0.014367
     29 H5           3.1870    -2.1420     1.2780 hc         1 4TX       0.014367
     30 H6           4.8990    -1.7130     1.3670 hc         1 4TX       0.014367
     31 H7           2.3300     0.9670    -0.8930 hc         1 4TX       0.043200
     32 H8           2.3340     1.0050     0.8580 hc         1 4TX       0.043200
     33 H16         -2.7140    -2.9620    -0.8080 hc         1 4TX       0.038700
     34 H18         -2.7080    -2.9230     0.9630 hc         1 4TX       0.038700
     35 H17         -4.1980    -3.3050     0.0910 hc         1 4TX       0.038700
     36 H19         -4.6760     3.4100    -1.0780 hc         1 4TX       0.038033
     37 H21         -5.6690     3.2140     0.3760 hc         1 4TX       0.038033
     38 H20         -3.9580     3.6310     0.5260 hc         1 4TX       0.038033
     39 O2          -1.3080    -0.6410     0.0250 os         1 4TX      -0.352100
@<TRIPOS>BOND
     1     1     5 ar  
     2     1    14 ar  
     3     1    18 1   
     4     2     3 1   
     5     2    19 1   
     6     2    20 1   
     7     2    39 1   
     8     3    13 1   
     9     3    21 1   
    10     3    22 1   
    11     4     9 1   
    12     4    11 1   
    13     4    12 1   
    14     4    13 1   
    15     5     6 ar  
    16     5    17 1   
    17     6     7 ar  
    18     6    23 1   
    19     7    15 ar  
    20     7    24 1   
    21     8     9 1   
    22     9    10 1   
    23    11    25 1   
    24    11    26 1   
    25    11    27 1   
    26    12    28 1   
    27    12    29 1   
    28    12    30 1   
    29    13    31 1   
    30    13    32 1   
    31    14    15 ar  
    32    14    39 1   
    33    15    16 1   
    34    16    33 1   
    35    16    34 1   
    36    16    35 1   
    37    17    36 1   
    38    17    37 1   
    39    17    38 1   
@<TRIPOS>SUBSTRUCTURE
     1 4TX         1 TEMP              0 ****  ****    0 ROOT
