@<TRIPOS>MOLECULE
4TY
   37    37     1     0     0
SMALL
bcc


@<TRIPOS>ATOM
      1 C4          -0.7640     0.2220     0.2120 ca         1 4TY      -0.106300
      2 C5           0.6470     0.6200     0.5700 c3         1 4TY       0.106000
      3 C6           2.9110    -0.1620     0.2710 c          1 4TY       0.770100
      4 C11          0.9200     2.0030    -0.0370 c          1 4TY       0.681100
      5 C7           5.0510    -1.2950    -0.0290 c3         1 4TY       0.202800
      6 C8           5.7270    -0.2390    -0.8940 c3         1 4TY      -0.109433
      7 C9           5.3660    -2.6840    -0.5670 c3         1 4TY      -0.109433
      8 C10          5.4810    -1.1980     1.4300 c3         1 4TY      -0.109433
      9 C12         -1.1210    -0.0480    -1.1070 ca         1 4TY      -0.105000
     10 C13         -2.4220    -0.3970    -1.4310 ca         1 4TY      -0.104500
     11 N1           1.5870    -0.3410     0.0610 ns         1 4TY      -0.559900
     12 N2           0.7570     2.9940     0.8480 ns         1 4TY      -0.450400
     13 C3          -1.7340     0.1390     1.2020 ca         1 4TY      -0.105000
     14 BR1         -5.1490    -0.9460    -0.8580 br         1 4TY      -0.090100
     15 C1          -3.3740    -0.4710    -0.4240 ca         1 4TY      -0.006900
     16 C2          -3.0420    -0.2050     0.8950 ca         1 4TY      -0.104500
     17 O1           3.6030    -1.2100    -0.1570 os         1 4TY      -0.447900
     18 O2           3.3650     0.8430     0.7810 o          1 4TY      -0.604000
     19 O3           1.1920     2.1620    -1.2100 o          1 4TY      -0.560100
     20 O4           0.7760     4.2920     0.4470 oh         1 4TY      -0.375100
     21 H1           0.7190     0.6810     1.6630 h1         1 4TY       0.056700
     22 H2           6.8080    -0.3820    -0.8550 hc         1 4TY       0.050700
     23 H3           5.4200    -0.3320    -1.9370 hc         1 4TY       0.050700
     24 H4           5.5130     0.7730    -0.5580 hc         1 4TY       0.050700
     25 H5           4.8830    -3.4620     0.0260 hc         1 4TY       0.050700
     26 H6           5.0470    -2.7930    -1.6040 hc         1 4TY       0.050700
     27 H7           6.4420    -2.8540    -0.5300 hc         1 4TY       0.050700
     28 H8           6.5380    -1.4580     1.5060 hc         1 4TY       0.050700
     29 H9           5.3540    -0.1990     1.8400 hc         1 4TY       0.050700
     30 H10          4.9250    -1.9040     2.0500 hc         1 4TY       0.050700
     31 H11         -0.3860     0.0160    -1.8990 ha         1 4TY       0.147000
     32 H12         -2.6810    -0.6030    -2.4610 ha         1 4TY       0.152000
     33 H13          1.2470    -1.2370    -0.2490 hn         1 4TY       0.338500
     34 H14          0.5540     2.8440     1.8260 hn         1 4TY       0.339500
     35 H15         -1.4720     0.3390     2.2340 ha         1 4TY       0.147000
     36 H16         -3.7810    -0.2650     1.6830 ha         1 4TY       0.152000
     37 H17          1.6920     4.5910     0.5230 ho         1 4TY       0.403000
@<TRIPOS>BOND
     1     1     2 1   
     2     1     9 ar  
     3     1    13 ar  
     4     2     4 1   
     5     2    11 1   
     6     2    21 1   
     7     3    11 1   
     8     3    17 1   
     9     3    18 2   
    10     4    12 1   
    11     4    19 2   
    12     5     6 1   
    13     5     7 1   
    14     5     8 1   
    15     5    17 1   
    16     6    22 1   
    17     6    23 1   
    18     6    24 1   
    19     7    25 1   
    20     7    26 1   
    21     7    27 1   
    22     8    28 1   
    23     8    29 1   
    24     8    30 1   
    25     9    10 ar  
    26     9    31 1   
    27    10    15 ar  
    28    10    32 1   
    29    11    33 1   
    30    12    20 1   
    31    12    34 1   
    32    13    16 ar  
    33    13    35 1   
    34    14    15 1   
    35    15    16 ar  
    36    16    36 1   
    37    20    37 1   
@<TRIPOS>SUBSTRUCTURE
     1 4TY         1 TEMP              0 ****  ****    0 ROOT
