@<TRIPOS>MOLECULE
4TY
   37    37     1     0     0
SMALL
No Charge or Current Charge


@<TRIPOS>ATOM
      1 C4          -0.5980     0.4090     0.2790 ca         1 4TY      -0.106300
      2 C5           0.8200     0.9590     0.4250 c3         1 4TY       0.106000
      3 C6           3.0920    -0.1070     0.3960 c          1 4TY       0.654100
      4 C11          0.9880     2.3250    -0.3150 c          1 4TY       0.614100
      5 C7           5.0850    -1.5040    -0.0170 c3         1 4TY       0.226000
      6 C8           5.9980    -0.3290    -0.4520 c3         1 4TY      -0.109433
      7 C9           5.3240    -2.7230    -0.9350 c3         1 4TY      -0.109433
      8 C10          5.2860    -1.9130     1.4660 c3         1 4TY      -0.109433
      9 C12         -1.1610     0.2080    -0.9990 ca         1 4TY      -0.087000
     10 C13         -2.4660    -0.2990    -1.1280 ca         1 4TY      -0.086500
     11 N1           1.8010    -0.0420    -0.0320 ns         1 4TY      -0.492900
     12 N2           0.1900     3.3540     0.1800 ns         1 4TY      -0.383400
     13 C3          -1.3550     0.0900     1.4250 ca         1 4TY      -0.087000
     14 Br1         -4.9890    -1.3000    -0.1570 br         1 4TY      -0.090100
     15 C1          -3.2140    -0.6100     0.0190 ca         1 4TY      -0.006900
     16 C2          -2.6600    -0.4170     1.2950 ca         1 4TY      -0.086500
     17 O1           3.7000    -1.1540    -0.2410 os         1 4TY      -0.471100
     18 O2           3.5880     0.6530     1.2110 o          1 4TY      -0.555000
     19 O3           1.7460     2.4940    -1.2670 o          1 4TY      -0.560100
     20 O4           0.0230     4.5910    -0.5560 oh         1 4TY      -0.414100
     21 H1           1.0090     1.1590     1.4870 h1         1 4TY       0.056700
     22 H2           7.0430    -0.6550    -0.5020 hc         1 4TY       0.050700
     23 H3           5.7110     0.0400    -1.4440 hc         1 4TY       0.050700
     24 H4           5.9530     0.5080     0.2540 hc         1 4TY       0.050700
     25 H5           4.6540    -3.5500    -0.6680 hc         1 4TY       0.050700
     26 H6           5.1420    -2.4620    -1.9850 hc         1 4TY       0.050700
     27 H7           6.3560    -3.0820    -0.8480 hc         1 4TY       0.050700
     28 H8           6.2640    -2.3920     1.6000 hc         1 4TY       0.050700
     29 H9           5.2550    -1.0480     2.1370 hc         1 4TY       0.050700
     30 H10          4.5150    -2.6250     1.7810 hc         1 4TY       0.050700
     31 H11         -0.5900     0.4440    -1.8950 ha         1 4TY       0.129000
     32 H12         -2.8960    -0.4500    -2.1160 ha         1 4TY       0.134000
     33 H13          1.5230    -0.7360    -0.7130 hn         1 4TY       0.338500
     34 H14         -0.5420     3.1310     0.8540 hn         1 4TY       0.339500
     35 H15         -0.9350     0.2320     2.4190 ha         1 4TY       0.129000
     36 H16         -3.2400    -0.6600     2.1830 ha         1 4TY       0.134000
     37 H17          0.1820     5.2900     0.1220 ho         1 4TY       0.442000
@<TRIPOS>BOND
     1     1     2 1   
     2     1     9 ar  
     3     1    13 ar  
     4     2     4 1   
     5     2    11 1   
     6     2    21 1   
     7     3    11 1   
     8     3    17 1   
     9     3    18 2   
    10     4    12 1   
    11     4    19 2   
    12     5     6 1   
    13     5     7 1   
    14     5     8 1   
    15     5    17 1   
    16     6    22 1   
    17     6    23 1   
    18     6    24 1   
    19     7    25 1   
    20     7    26 1   
    21     7    27 1   
    22     8    28 1   
    23     8    29 1   
    24     8    30 1   
    25     9    10 ar  
    26     9    31 1   
    27    10    15 ar  
    28    10    32 1   
    29    11    33 1   
    30    12    20 1   
    31    12    34 1   
    32    13    16 ar  
    33    13    35 1   
    34    14    15 1   
    35    15    16 ar  
    36    16    36 1   
    37    20    37 1   
@<TRIPOS>SUBSTRUCTURE
     1 4TY         1 TEMP              0 ****  ****    0 ROOT
