@<TRIPOS>MOLECULE
4TZ
   40    42     1     0     0
SMALL
No Charge or Current Charge


@<TRIPOS>ATOM
      1 S2          -0.2410    -0.7990     5.5470 s6         1 4TZ       1.393800
      2 O1          -0.1520    -2.1710     5.0460 o          1 4TZ      -0.541000
      3 O2          -1.3050    -0.3570     6.4430 o          1 4TZ      -0.541000
      4 O3          -0.0420     0.2930     4.3440 os         1 4TZ      -0.442800
      5 N1           1.1370    -0.4780     6.3380 n8         1 4TZ      -1.059100
      6 N2           0.7130    -0.3510    -2.0110 nh         1 4TZ      -0.671700
      7 N3           1.8170     0.5580    -1.8560 na         1 4TZ      -0.168500
      8 N4           3.0550     2.2680    -1.1760 nc         1 4TZ      -0.353500
      9 N5           3.8200     1.4940    -2.0290 nc         1 4TZ      -0.353500
     10 N6          -3.9840     0.6090    -6.9350 n1         1 4TZ      -0.448000
     11 C1           1.8580     1.6980    -1.0750 cd         1 4TZ       0.384900
     12 C2           3.0730     0.4700    -2.4280 cd         1 4TZ       0.384900
     13 C3          -0.2660    -0.1610    -3.0310 ca         1 4TZ       0.329000
     14 C4          -1.5370    -0.7720    -2.9560 ca         1 4TZ      -0.170500
     15 C5          -2.4980    -0.5720    -3.9640 ca         1 4TZ      -0.033500
     16 C6          -2.2050     0.2470    -5.0680 ca         1 4TZ      -0.052000
     17 C7          -0.9470     0.8670    -5.1530 ca         1 4TZ      -0.033500
     18 C8           0.0090     0.6650    -4.1420 ca         1 4TZ      -0.170500
     19 C9          -3.1850     0.4520    -6.0980 cg         1 4TZ       0.326000
     20 C11          0.5110    -1.0210     0.4030 ca         1 4TZ      -0.139300
     21 C12         -0.7250    -0.4800     0.8110 ca         1 4TZ      -0.081000
     22 C13         -0.9070    -0.0450     2.1350 ca         1 4TZ      -0.106000
     23 C14          0.1420    -0.1570     3.0620 ca         1 4TZ       0.134100
     24 C15          1.3840    -0.6790     2.6580 ca         1 4TZ      -0.106000
     25 C16          1.5660    -1.1130     1.3330 ca         1 4TZ      -0.081000
     26 HN11         1.3480     0.4230     5.9190 hn         1 4TZ       0.491000
     27 HN12         0.7450    -0.2370     7.2440 hn         1 4TZ       0.491000
     28 H1           1.0160     2.0350    -0.4840 h5         1 4TZ       0.075600
     29 H2           3.3580    -0.3320    -3.0980 h5         1 4TZ       0.075600
     30 H4          -1.8060    -1.3950    -2.1120 ha         1 4TZ       0.128500
     31 H5          -3.4710    -1.0540    -3.8820 ha         1 4TZ       0.129500
     32 H7          -0.7070     1.5070    -6.0010 ha         1 4TZ       0.129500
     33 H8           0.9720     1.1550    -4.2380 ha         1 4TZ       0.128500
     34 H101         1.6740    -2.0080    -1.1140 h1         1 4TZ       0.075200
     35 H102        -0.0450    -2.2270    -1.2890 h1         1 4TZ       0.075200
     36 H12         -1.5430    -0.3860     0.1000 ha         1 4TZ       0.125500
     37 H13         -1.8590     0.3790     2.4440 ha         1 4TZ       0.139000
     38 H15          2.2050    -0.7460     3.3680 ha         1 4TZ       0.139000
     39 H16          2.5320    -1.5140     1.0310 ha         1 4TZ       0.125500
     40 C10          0.7150    -1.4770    -1.0400 c3         1 4TZ       0.273100
@<TRIPOS>BOND
     1     1     2 2   
     2     1     3 2   
     3     1     4 1   
     4     1     5 1   
     5     4    23 1   
     6     5    26 1   
     7     5    27 1   
     8     6     7 1   
     9     6    13 1   
    10     6    40 1   
    11     7    11 1   
    12     7    12 1   
    13     8     9 1   
    14     8    11 2   
    15     9    12 2   
    16    10    19 3   
    17    11    28 1   
    18    12    29 1   
    19    13    14 ar  
    20    13    18 ar  
    21    14    15 ar  
    22    14    30 1   
    23    15    16 ar  
    24    15    31 1   
    25    16    17 ar  
    26    16    19 1   
    27    17    18 ar  
    28    17    32 1   
    29    18    33 1   
    30    20    21 ar  
    31    20    25 ar  
    32    20    40 1   
    33    21    22 ar  
    34    21    36 1   
    35    22    23 ar  
    36    22    37 1   
    37    23    24 ar  
    38    24    25 ar  
    39    24    38 1   
    40    25    39 1   
    41    34    40 1   
    42    35    40 1   
@<TRIPOS>SUBSTRUCTURE
     1 4TZ         1 TEMP              0 ****  ****    0 ROOT
