@<TRIPOS>MOLECULE
4TZ
   40    42     1     0     0
SMALL
abcg2


@<TRIPOS>ATOM
      1 S2          -0.7320    -0.1310     5.2340 s6         1 4TZ       1.393800
      2 O1          -1.6610    -1.1470     4.8030 o          1 4TZ      -0.541000
      3 O2          -1.1220     0.8730     6.1900 o          1 4TZ      -0.541000
      4 O3          -0.2860     0.7670     3.9580 os         1 4TZ      -0.442800
      5 N1           0.6690    -0.8750     5.5980 n8         1 4TZ      -1.059100
      6 N2           1.0440    -0.5980    -2.0730 nh         1 4TZ      -0.671700
      7 N3           1.9920     0.3750    -1.9580 na         1 4TZ      -0.168500
      8 N4           3.0700     2.1560    -1.3500 nc         1 4TZ      -0.353500
      9 N5           3.8550     1.4530    -2.2170 nc         1 4TZ      -0.353500
     10 N6          -4.3170     0.7500    -5.9740 n1         1 4TZ      -0.448000
     11 C1           1.9600     1.5050    -1.1980 cd         1 4TZ       0.384900
     12 C2           3.2020     0.3940    -2.5750 cd         1 4TZ       0.384900
     13 C3          -0.0670    -0.3140    -2.8560 ca         1 4TZ       0.329000
     14 C4          -1.1790    -1.1650    -2.8650 ca         1 4TZ      -0.170500
     15 C5          -2.2670    -0.8920    -3.6670 ca         1 4TZ      -0.033500
     16 C6          -2.2800     0.2350    -4.4850 ca         1 4TZ      -0.052000
     17 C7          -1.1720     1.0810    -4.4870 ca         1 4TZ      -0.033500
     18 C8          -0.0820     0.8130    -3.6890 ca         1 4TZ      -0.170500
     19 C9          -3.4060     0.5180    -5.3080 cg         1 4TZ       0.326000
     20 C11          0.6890    -1.0250     0.3390 ca         1 4TZ      -0.139300
     21 C12         -0.6270    -0.6620     0.6170 ca         1 4TZ      -0.081000
     22 C13         -0.9590    -0.0930     1.8350 ca         1 4TZ      -0.106000
     23 C14          0.0360     0.1270     2.7740 ca         1 4TZ       0.134100
     24 C15          1.3510    -0.2160     2.5190 ca         1 4TZ      -0.106000
     25 C16          1.6680    -0.7910     1.2970 ca         1 4TZ      -0.081000
     26 HN11         1.3090    -0.3020     6.1340 hn         1 4TZ       0.491000
     27 HN12         0.5440    -1.7920     6.0080 hn         1 4TZ       0.491000
     28 H1           1.1210     1.7950    -0.5850 h5         1 4TZ       0.075600
     29 H2           3.5310    -0.3780    -3.2510 h5         1 4TZ       0.075600
     30 H4          -1.2180    -2.0550    -2.2560 ha         1 4TZ       0.128500
     31 H5          -3.1130    -1.5630    -3.6530 ha         1 4TZ       0.129500
     32 H7          -1.1600     1.9580    -5.1190 ha         1 4TZ       0.129500
     33 H8           0.7570     1.4930    -3.7300 ha         1 4TZ       0.128500
     34 H101         2.1030    -1.9710    -0.9570 h1         1 4TZ       0.075200
     35 H102         0.4590    -2.4300    -1.2880 h1         1 4TZ       0.075200
     36 H12         -1.4130    -0.8220    -0.1100 ha         1 4TZ       0.125500
     37 H13         -1.9810     0.1890     2.0450 ha         1 4TZ       0.139000
     38 H15          2.1220    -0.0280     3.2520 ha         1 4TZ       0.139000
     39 H16          2.6980    -1.0550     1.0950 ha         1 4TZ       0.125500
     40 C10          1.0830    -1.5860    -1.0010 c3         1 4TZ       0.273100
@<TRIPOS>BOND
     1     1     2 2   
     2     1     3 2   
     3     1     4 1   
     4     1     5 1   
     5     4    23 1   
     6     5    26 1   
     7     5    27 1   
     8     6     7 1   
     9     6    13 1   
    10     6    40 1   
    11     7    11 1   
    12     7    12 1   
    13     8     9 1   
    14     8    11 2   
    15     9    12 2   
    16    10    19 3   
    17    11    28 1   
    18    12    29 1   
    19    13    14 ar  
    20    13    18 ar  
    21    14    15 ar  
    22    14    30 1   
    23    15    16 ar  
    24    15    31 1   
    25    16    17 ar  
    26    16    19 1   
    27    17    18 ar  
    28    17    32 1   
    29    18    33 1   
    30    20    21 ar  
    31    20    25 ar  
    32    20    40 1   
    33    21    22 ar  
    34    21    36 1   
    35    22    23 ar  
    36    22    37 1   
    37    23    24 ar  
    38    24    25 ar  
    39    24    38 1   
    40    25    39 1   
    41    34    40 1   
    42    35    40 1   
@<TRIPOS>SUBSTRUCTURE
     1 4TZ         1 TEMP              0 ****  ****    0 ROOT
