@<TRIPOS>MOLECULE
4U2
   87    89     1     0     0
SMALL
No Charge or Current Charge


@<TRIPOS>ATOM
      1 C4          -0.2070     3.3930    -0.7770 c6         1 4U2       0.115300
      2 C5           1.1690     2.9800    -1.4000 c6         1 4U2       0.147300
      3 C6           1.9330     4.1870    -2.0390 c3         1 4U2       0.166600
      4 C3          -0.8630     2.1300    -0.1260 c6         1 4U2       0.221300
      5 CBT          9.6240    -0.5990     1.9700 c3         1 4U2      -0.182100
      6 CBR          8.5240    -0.5610     0.9170 c          1 4U2       0.607100
      7 OBS          8.7570    -0.4170    -0.2730 o          1 4U2      -0.585100
      8 NBO          7.2450    -0.6810     1.4170 ns         1 4U2      -0.507900
      9 CBI          6.0070    -0.8040     0.5980 c6         1 4U2       0.031700
     10 CBH          4.8310    -0.0090     1.2380 c6         1 4U2       0.162300
     11 OBP          5.1970     1.3760     1.3900 oh         1 4U2      -0.674000
     12 CBJ          5.5600    -2.2870     0.4160 c6         1 4U2       0.385300
     13 OBN          6.5130    -3.0390    -0.3040 oh         1 4U2      -0.630000
     14 OBK          4.3740    -2.3530    -0.3760 os         1 4U2      -0.466000
     15 CBL          3.2240    -1.7070     0.2280 c6         1 4U2       0.151300
     16 CBM          1.9650    -2.0400    -0.6440 c3         1 4U2       0.173600
     17 OBQ          1.7730    -3.4530    -0.8610 oh         1 4U2      -0.748000
     18 CBG          3.5180    -0.1780     0.4020 c6         1 4U2       0.152300
     19 O1           2.4180     0.5370     1.0310 os         1 4U2      -0.447000
     20 C1           1.4650     1.1430     0.1330 c6         1 4U2       0.353300
     21 C2           0.1390     1.4680     0.8870 c6         1 4U2       0.126300
     22 O2          -0.3930     0.2900     1.5420 oh         1 4U2      -0.683000
     23 O5           2.0220     2.3540    -0.4060 os         1 4U2      -0.456000
     24 O6           3.1590     3.8010    -2.6910 oh         1 4U2      -0.708000
     25 O4          -0.0820     4.4580     0.1990 oh         1 4U2      -0.706000
     26 O3          -2.1370     2.4550     0.5150 os         1 4U2      -0.429000
     27 CAA         -3.3340     1.8240    -0.0470 c6         1 4U2       0.284000
     28 CBA         -3.7440     2.4470    -1.4880 c          1 4U2       0.702000
     29 OBC         -3.9440     1.6650    -2.4090 o          1 4U2      -0.721000
     30 OBB         -3.2580     3.5360    -1.7750 o          1 4U2      -0.721000
     31 OAB         -3.0610     0.3840    -0.0350 os         1 4U2      -0.472000
     32 CAF         -4.4800     2.1010     0.9670 c6         1 4U2      -0.115400
     33 CAE         -5.7080     1.1970     0.7040 c6         1 4U2       0.158300
     34 OAH         -6.7330     1.4800     1.6700 oh         1 4U2      -0.679000
     35 CAD         -5.2870    -0.2990     0.7700 c6         1 4U2       0.067700
     36 NAI         -6.4520    -1.1990     0.6010 ns         1 4U2      -0.474900
     37 CBD         -6.5850    -2.4430     1.1680 c          1 4U2       0.600100
     38 OBE         -5.6920    -2.9520     1.8330 o          1 4U2      -0.653100
     39 CBF         -7.9120    -3.1390     0.9010 c3         1 4U2      -0.176100
     40 CAC         -4.1640    -0.5300    -0.2910 c6         1 4U2       0.184300
     41 CAJ         -3.5790    -1.9980    -0.2980 c3         1 4U2       0.159300
     42 OAV         -3.2250    -2.4500     1.0260 oh         1 4U2      -0.729000
     43 CAW         -2.3570    -2.1610    -1.2650 c3         1 4U2       0.166300
     44 OAZ         -2.7510    -1.8870    -2.6300 oh         1 4U2      -0.621000
     45 CAX         -1.6870    -3.5640    -1.2170 c3         1 4U2       0.122600
     46 OAY         -0.5770    -3.6130    -2.1330 oh         1 4U2      -0.728000
     47 H1          -0.8430     3.7250    -1.6100 h1         1 4U2       0.101700
     48 H2           0.9830     2.2530    -2.2040 h1         1 4U2       0.055700
     49 H3           1.2630     4.6710    -2.7630 h1         1 4U2       0.026200
     50 H4           2.1460     4.9220    -1.2510 h1         1 4U2       0.026200
     51 H5          -1.0400     1.4070    -0.9370 h1         1 4U2       0.076700
     52 H6          10.6260    -0.4850     1.5380 hc         1 4U2       0.055700
     53 H7           9.4210     0.1660     2.7280 hc         1 4U2       0.055700
     54 H8           9.5350    -1.5270     2.5450 hc         1 4U2       0.055700
     55 H9           7.1750    -0.8240     2.4190 hn         1 4U2       0.300500
     56 H10          6.1980    -0.3900    -0.4030 h1         1 4U2       0.123700
     57 H12          6.1210     1.3830     1.7260 ho         1 4U2       0.497000
     58 H13          5.3770    -2.7570     1.3940 h2         1 4U2       0.005700
     59 H14          5.9610    -3.5760    -0.9100 ho         1 4U2       0.453000
     60 H16          1.0820    -1.6290    -0.1380 h1         1 4U2       0.042700
     61 H17          2.0640    -1.5210    -1.6070 h1         1 4U2       0.042700
     62 H18          0.8970    -3.5510    -1.3440 ho         1 4U2       0.535000
     63 H19          3.7020     0.2580    -0.5920 h1         1 4U2       0.083700
     64 H20          1.2410     0.4530    -0.6920 h2         1 4U2       0.026700
     65 H21          0.3800     2.2210     1.6510 h1         1 4U2       0.066700
     66 H22          0.3180    -0.0380     2.1370 ho         1 4U2       0.495000
     67 H23          3.6100     4.6310    -2.9680 ho         1 4U2       0.491000
     68 H24         -0.9550     4.5100     0.6530 ho         1 4U2       0.488000
     69 H26         -4.1140     1.9350     1.9900 hc         1 4U2       0.053700
     70 H27         -4.7710     3.1580     0.9080 hc         1 4U2       0.053700
     71 H28         -6.0890     1.4050    -0.3090 h1         1 4U2       0.073700
     72 H29         -6.9680     2.4290     1.5720 ho         1 4U2       0.437000
     73 H30         -4.8600    -0.4760     1.7680 h1         1 4U2       0.092700
     74 H31         -7.2610    -0.8460     0.1040 hn         1 4U2       0.314500
     75 H32         -7.9700    -4.1300     1.3670 hc         1 4U2       0.054033
     76 H33         -8.7290    -2.4880     1.2320 hc         1 4U2       0.054033
     77 H34         -8.0780    -3.1900    -0.1810 hc         1 4U2       0.054033
     78 H35         -4.5790    -0.3470    -1.2900 h1         1 4U2       0.078700
     79 H36         -4.3730    -2.6540    -0.6780 h1         1 4U2       0.001700
     80 H37         -4.0980    -2.6770     1.4650 ho         1 4U2       0.534000
     81 H38         -1.5950    -1.4370    -0.9440 h1         1 4U2       0.125700
     82 H39         -3.4990    -2.4840    -2.8480 ho         1 4U2       0.419000
     83 H40         -1.3350    -3.7700    -0.1980 h1         1 4U2       0.028700
     84 H41         -2.4300    -4.3310    -1.4730 h1         1 4U2       0.028700
     85 H42         -0.9260    -3.2590    -2.9890 ho         1 4U2       0.497000
     86 H11          4.6450    -0.4380     2.2340 h1         1 4U2       0.025700
     87 H15          3.0620    -2.1500     1.2210 h1         1 4U2       0.045700
@<TRIPOS>BOND
     1     1     2 1   
     2     1     4 1   
     3     1    25 1   
     4     1    47 1   
     5     2     3 1   
     6     2    23 1   
     7     2    48 1   
     8     3    24 1   
     9     3    49 1   
    10     3    50 1   
    11     4    21 1   
    12     4    26 1   
    13     4    51 1   
    14     5     6 1   
    15     5    52 1   
    16     5    53 1   
    17     5    54 1   
    18     6     7 2   
    19     6     8 1   
    20     8     9 1   
    21     8    55 1   
    22     9    10 1   
    23     9    12 1   
    24     9    56 1   
    25    10    11 1   
    26    10    18 1   
    27    10    86 1   
    28    11    57 1   
    29    12    13 1   
    30    12    14 1   
    31    12    58 1   
    32    13    59 1   
    33    14    15 1   
    34    15    16 1   
    35    15    18 1   
    36    15    87 1   
    37    16    17 1   
    38    16    60 1   
    39    16    61 1   
    40    17    62 1   
    41    18    19 1   
    42    18    63 1   
    43    19    20 1   
    44    20    21 1   
    45    20    23 1   
    46    20    64 1   
    47    21    22 1   
    48    21    65 1   
    49    22    66 1   
    50    24    67 1   
    51    25    68 1   
    52    26    27 1   
    53    27    28 1   
    54    27    31 1   
    55    27    32 1   
    56    28    29 1   
    57    28    30 1   
    58    31    40 1   
    59    32    33 1   
    60    32    69 1   
    61    32    70 1   
    62    33    34 1   
    63    33    35 1   
    64    33    71 1   
    65    34    72 1   
    66    35    36 1   
    67    35    40 1   
    68    35    73 1   
    69    36    37 1   
    70    36    74 1   
    71    37    38 2   
    72    37    39 1   
    73    39    75 1   
    74    39    76 1   
    75    39    77 1   
    76    40    41 1   
    77    40    78 1   
    78    41    42 1   
    79    41    43 1   
    80    41    79 1   
    81    42    80 1   
    82    43    44 1   
    83    43    45 1   
    84    43    81 1   
    85    44    82 1   
    86    45    46 1   
    87    45    83 1   
    88    45    84 1   
    89    46    85 1   
@<TRIPOS>SUBSTRUCTURE
     1 4U2         1 TEMP              0 ****  ****    0 ROOT
