@<TRIPOS>MOLECULE
4U2
   87    89     1     0     0
SMALL
bcc


@<TRIPOS>ATOM
      1 C4          -0.1410     3.4100    -0.5420 c6         1 4U2       0.092100
      2 C5           1.2410     3.1720    -1.1530 c6         1 4U2       0.124100
      3 C6           1.9570     4.4700    -1.4540 c3         1 4U2       0.143400
      4 C3          -0.7910     2.0630    -0.2150 c6         1 4U2       0.198100
      5 CBT          9.3260    -0.3720     1.8650 c3         1 4U2      -0.182100
      6 CBR          8.2530    -0.3980     0.8050 c          1 4U2       0.674100
      7 OBS          8.5070    -0.2030    -0.3730 o          1 4U2      -0.585100
      8 NBO          7.0080    -0.6470     1.2650 ns         1 4U2      -0.574900
      9 CBI          5.8490    -0.8220     0.4270 c6         1 4U2       0.031700
     10 CBH          4.6920     0.0290     0.9610 c6         1 4U2       0.139100
     11 OBP          4.9950     1.3940     0.9050 oh         1 4U2      -0.551800
     12 CBJ          5.4310    -2.2890     0.3510 c6         1 4U2       0.338900
     13 OBN          6.4420    -3.0130    -0.2360 oh         1 4U2      -0.567800
     14 OBK          4.2770    -2.3950    -0.4450 os         1 4U2      -0.419600
     15 CBL          3.1520    -1.7380     0.1000 c6         1 4U2       0.128100
     16 CBM          1.9540    -2.0970    -0.7570 c3         1 4U2       0.150400
     17 OBQ          1.7420    -3.4820    -0.6900 oh         1 4U2      -0.625800
     18 CBG          3.4270    -0.2270     0.1550 c6         1 4U2       0.129100
     19 O1           2.3570     0.4430     0.7930 os         1 4U2      -0.400600
     20 C1           1.4910     1.1520    -0.0200 c6         1 4U2       0.306900
     21 C2           0.1480     1.2860     0.7090 c6         1 4U2       0.103100
     22 O2          -0.3870     0.0280     1.0040 oh         1 4U2      -0.560800
     23 O5           2.0520     2.4020    -0.2870 os         1 4U2      -0.409600
     24 O6           3.1180     4.1980    -2.2020 oh         1 4U2      -0.585800
     25 O4          -0.0570     4.1750     0.6430 oh         1 4U2      -0.583800
     26 O3          -2.0460     2.2680     0.3920 os         1 4U2      -0.382600
     27 CAA         -3.1880     1.6980    -0.1740 c6         1 4U2       0.237600
     28 CBA         -3.5110     2.2360    -1.6060 c          1 4U2       0.912600
     29 OBC         -4.4950     1.7100    -2.1630 o          1 4U2      -0.826300
     30 OBB         -2.8160     3.1590    -2.0620 o          1 4U2      -0.826300
     31 OAB         -2.9740     0.3060    -0.1900 os         1 4U2      -0.425600
     32 CAF         -4.3230     2.0520     0.7930 c6         1 4U2      -0.115400
     33 CAE         -5.5630     1.1830     0.6230 c6         1 4U2       0.135100
     34 OAH         -6.4850     1.4000     1.6730 oh         1 4U2      -0.616800
     35 CAD         -5.1560    -0.2820     0.6720 c6         1 4U2       0.067700
     36 NAI         -6.3180    -1.1210     0.4640 ns         1 4U2      -0.541900
     37 CBD         -6.5760    -2.2420     1.1460 c          1 4U2       0.667100
     38 OBE         -5.7950    -2.7220     1.9710 o          1 4U2      -0.653100
     39 CBF         -7.8990    -2.9010     0.8610 c3         1 4U2      -0.176100
     40 CAC         -4.0530    -0.5740    -0.3610 c6         1 4U2       0.161100
     41 CAJ         -3.5150    -2.0050    -0.2190 c3         1 4U2       0.136100
     42 OAV         -3.1480    -2.3290     1.0990 oh         1 4U2      -0.606800
     43 CAW         -2.3080    -2.2680    -1.1300 c3         1 4U2       0.143100
     44 OAZ         -2.5790    -1.8860    -2.4590 oh         1 4U2      -0.558800
     45 CAX         -1.8970    -3.7320    -1.0500 c3         1 4U2       0.099400
     46 OAY         -0.7520    -3.9440    -1.8640 oh         1 4U2      -0.605800
     47 H1          -0.7690     3.9040    -1.2860 h1         1 4U2       0.101700
     48 H2           1.0930     2.6340    -2.1060 h1         1 4U2       0.055700
     49 H3           1.2610     5.1140    -2.0080 h1         1 4U2       0.026200
     50 H4           2.1930     4.9820    -0.5130 h1         1 4U2       0.026200
     51 H5          -0.8850     1.5040    -1.1550 h1         1 4U2       0.076700
     52 H6           9.9360     0.5220     1.7470 hc         1 4U2       0.055700
     53 H7           8.9350    -0.3950     2.8800 hc         1 4U2       0.055700
     54 H8           9.9800    -1.2340     1.7320 hc         1 4U2       0.055700
     55 H9           6.9030    -0.8540     2.2460 hn         1 4U2       0.300500
     56 H10          6.1030    -0.4850    -0.5810 h1         1 4U2       0.123700
     57 H12          5.7690     1.5480     1.4590 ho         1 4U2       0.398000
     58 H13          5.2040    -2.6580     1.3680 h2         1 4U2       0.005700
     59 H14          6.3240    -3.9480    -0.0340 ho         1 4U2       0.414000
     60 H16          1.0840    -1.5440    -0.3890 h1         1 4U2       0.042700
     61 H17          2.1380    -1.7550    -1.7870 h1         1 4U2       0.042700
     62 H18          0.8730    -3.6620    -1.0930 ho         1 4U2       0.436000
     63 H19          3.5750     0.1500    -0.8670 h1         1 4U2       0.083700
     64 H20          1.3180     0.6170    -0.9740 h2         1 4U2       0.026700
     65 H21          0.3150     1.8680     1.6280 h1         1 4U2       0.066700
     66 H22          0.1960    -0.3960     1.6420 ho         1 4U2       0.396000
     67 H23          3.5850     5.0280    -2.3340 ho         1 4U2       0.392000
     68 H24         -0.1770     5.1010     0.4190 ho         1 4U2       0.389000
     69 H26         -3.9510     1.9150     1.8140 hc         1 4U2       0.053700
     70 H27         -4.5900     3.1080     0.6850 hc         1 4U2       0.053700
     71 H28         -6.0260     1.3940    -0.3470 h1         1 4U2       0.073700
     72 H29         -6.8320     2.2930     1.5840 ho         1 4U2       0.398000
     73 H30         -4.7730    -0.4790     1.6770 h1         1 4U2       0.092700
     74 H31         -7.0020    -0.8070    -0.2060 hn         1 4U2       0.314500
     75 H32         -7.7360    -3.9400     0.5790 hc         1 4U2       0.054033
     76 H33         -8.5000    -2.9010     1.7710 hc         1 4U2       0.054033
     77 H34         -8.4690    -2.4100     0.0750 hc         1 4U2       0.054033
     78 H35         -4.4880    -0.4790    -1.3600 h1         1 4U2       0.078700
     79 H36         -4.3280    -2.6660    -0.5650 h1         1 4U2       0.001700
     80 H37         -3.9700    -2.5140     1.5820 ho         1 4U2       0.435000
     81 H38         -1.4780    -1.6390    -0.7950 h1         1 4U2       0.125700
     82 H39         -3.2940    -2.4370    -2.7970 ho         1 4U2       0.380000
     83 H40         -1.6940    -4.0080    -0.0120 h1         1 4U2       0.028700
     84 H41         -2.7270    -4.3610    -1.3980 h1         1 4U2       0.028700
     85 H42         -0.7010    -4.8810    -2.0750 ho         1 4U2       0.398000
     86 H11          4.4920    -0.2870     2.0000 h1         1 4U2       0.025700
     87 H15          2.9660    -2.0900     1.1290 h1         1 4U2       0.045700
@<TRIPOS>BOND
     1     1     2 1   
     2     1     4 1   
     3     1    25 1   
     4     1    47 1   
     5     2     3 1   
     6     2    23 1   
     7     2    48 1   
     8     3    24 1   
     9     3    49 1   
    10     3    50 1   
    11     4    21 1   
    12     4    26 1   
    13     4    51 1   
    14     5     6 1   
    15     5    52 1   
    16     5    53 1   
    17     5    54 1   
    18     6     7 2   
    19     6     8 1   
    20     8     9 1   
    21     8    55 1   
    22     9    10 1   
    23     9    12 1   
    24     9    56 1   
    25    10    11 1   
    26    10    18 1   
    27    10    86 1   
    28    11    57 1   
    29    12    13 1   
    30    12    14 1   
    31    12    58 1   
    32    13    59 1   
    33    14    15 1   
    34    15    16 1   
    35    15    18 1   
    36    15    87 1   
    37    16    17 1   
    38    16    60 1   
    39    16    61 1   
    40    17    62 1   
    41    18    19 1   
    42    18    63 1   
    43    19    20 1   
    44    20    21 1   
    45    20    23 1   
    46    20    64 1   
    47    21    22 1   
    48    21    65 1   
    49    22    66 1   
    50    24    67 1   
    51    25    68 1   
    52    26    27 1   
    53    27    28 1   
    54    27    31 1   
    55    27    32 1   
    56    28    29 1   
    57    28    30 1   
    58    31    40 1   
    59    32    33 1   
    60    32    69 1   
    61    32    70 1   
    62    33    34 1   
    63    33    35 1   
    64    33    71 1   
    65    34    72 1   
    66    35    36 1   
    67    35    40 1   
    68    35    73 1   
    69    36    37 1   
    70    36    74 1   
    71    37    38 2   
    72    37    39 1   
    73    39    75 1   
    74    39    76 1   
    75    39    77 1   
    76    40    41 1   
    77    40    78 1   
    78    41    42 1   
    79    41    43 1   
    80    41    79 1   
    81    42    80 1   
    82    43    44 1   
    83    43    45 1   
    84    43    81 1   
    85    44    82 1   
    86    45    46 1   
    87    45    83 1   
    88    45    84 1   
    89    46    85 1   
@<TRIPOS>SUBSTRUCTURE
     1 4U2         1 TEMP              0 ****  ****    0 ROOT
