@<TRIPOS>MOLECULE
4U5
   46    47     1     0     0
SMALL
No Charge or Current Charge


@<TRIPOS>ATOM
      1 CAB          4.8240     2.5780    -1.3520 c3         1 4U5      -0.085433
      2 CAX          4.4110     1.8780    -0.0280 c3         1 4U5      -0.116000
      3 CAC          5.6740     1.6050     0.8340 c3         1 4U5      -0.085433
      4 CAD          3.4680     2.8360     0.7640 c3         1 4U5      -0.085433
      5 CAR          3.7360     0.5100    -0.3740 c          1 4U5       0.606100
      6 OAF          4.3200    -0.3680    -0.9960 o          1 4U5      -0.609100
      7 N            2.4390     0.3270     0.0530 ns         1 4U5      -0.495900
      8 CA           1.6480    -0.8980    -0.1730 c3         1 4U5       0.093000
      9 C            2.0130    -2.0240     0.8480 c          1 4U5       0.607100
     10 O            2.7340    -1.8450     1.8260 o          1 4U5      -0.558100
     11 NAO          1.4190    -3.2570     0.5870 ns         1 4U5      -0.372400
     12 OAG          1.8440    -4.4560     1.2810 oh         1 4U5      -0.426100
     13 CAU          0.1580    -0.5640    -0.1390 ca         1 4U5      -0.124300
     14 CAK         -0.4640    -0.1810     1.0650 ca         1 4U5      -0.086000
     15 CAI         -1.8340     0.1280     1.0890 ca         1 4U5      -0.113500
     16 CAJ         -0.6090    -0.6250    -1.3160 ca         1 4U5      -0.086000
     17 CAH         -1.9800    -0.3150    -1.2900 ca         1 4U5      -0.113500
     18 CAS         -2.6120     0.0660    -0.0860 ca         1 4U5       0.036000
     19 CAT         -4.0420     0.3950    -0.0320 cc         1 4U5      -0.167000
     20 CAM         -4.8650     0.3600    -1.1210 cd         1 4U5      -0.152000
     21 CAL         -4.8410     0.7910     1.0550 cc         1 4U5       0.258900
     22 NAN         -6.1010     1.0080     0.7380 nd         1 4U5      -0.523800
     23 NAW         -6.1180     0.7380    -0.6250 na         1 4U5       0.136800
     24 CAA         -7.3600     0.8600    -1.4000 c3         1 4U5       0.071900
     25 H1           5.5290     1.9600    -1.9220 hc         1 4U5       0.042478
     26 H2           3.9470     2.7610    -1.9850 hc         1 4U5       0.042478
     27 H3           5.3080     3.5420    -1.1540 hc         1 4U5       0.042478
     28 H4           6.1820     2.5420     1.0960 hc         1 4U5       0.042478
     29 H5           5.4050     1.0920     1.7650 hc         1 4U5       0.042478
     30 H6           6.3910     0.9740     0.2950 hc         1 4U5       0.042478
     31 H7           2.5660     3.0750     0.1870 hc         1 4U5       0.042478
     32 H8           3.1640     2.3940     1.7210 hc         1 4U5       0.042478
     33 H9           3.9750     3.7830     0.9870 hc         1 4U5       0.042478
     34 H10          2.0100     1.0890     0.5610 hn         1 4U5       0.331500
     35 H11          1.8960    -1.2880    -1.1680 h1         1 4U5       0.060700
     36 H12          0.9260    -3.3970    -0.2950 hn         1 4U5       0.332500
     37 H13          0.9980    -4.8530     1.5970 ho         1 4U5       0.443000
     38 H14          0.1120    -0.1230     1.9860 ha         1 4U5       0.121000
     39 H15         -2.2880     0.4190     2.0320 ha         1 4U5       0.114000
     40 H16         -0.1460    -0.9120    -2.2580 ha         1 4U5       0.121000
     41 H17         -2.5410    -0.3740    -2.2180 ha         1 4U5       0.114000
     42 H18         -4.6930     0.1130    -2.1620 h4         1 4U5       0.154000
     43 H19         -4.5350     0.9290     2.0830 h4         1 4U5       0.040100
     44 H20         -8.1140     0.1750    -0.9930 h1         1 4U5       0.058033
     45 H21         -7.7320     1.8890    -1.3370 h1         1 4U5       0.058033
     46 H22         -7.1690     0.6060    -2.4490 h1         1 4U5       0.058033
@<TRIPOS>BOND
     1     1     2 1   
     2     1    25 1   
     3     1    26 1   
     4     1    27 1   
     5     2     3 1   
     6     2     4 1   
     7     2     5 1   
     8     3    28 1   
     9     3    29 1   
    10     3    30 1   
    11     4    31 1   
    12     4    32 1   
    13     4    33 1   
    14     5     6 2   
    15     5     7 1   
    16     7     8 1   
    17     7    34 1   
    18     8     9 1   
    19     8    13 1   
    20     8    35 1   
    21     9    10 2   
    22     9    11 1   
    23    11    12 1   
    24    11    36 1   
    25    12    37 1   
    26    13    14 ar  
    27    13    16 ar  
    28    14    15 ar  
    29    14    38 1   
    30    15    18 ar  
    31    15    39 1   
    32    16    17 ar  
    33    16    40 1   
    34    17    18 ar  
    35    17    41 1   
    36    18    19 1   
    37    19    20 2   
    38    19    21 1   
    39    20    23 1   
    40    20    42 1   
    41    21    22 2   
    42    21    43 1   
    43    22    23 1   
    44    23    24 1   
    45    24    44 1   
    46    24    45 1   
    47    24    46 1   
@<TRIPOS>SUBSTRUCTURE
     1 4U5         1 TEMP              0 ****  ****    0 ROOT
