@<TRIPOS>MOLECULE
4U5
   46    47     1     0     0
SMALL
bcc


@<TRIPOS>ATOM
      1 CAB          5.6340     1.9120    -0.8220 c3         1 4U5      -0.085433
      2 CAX          4.4720     1.7130     0.1540 c3         1 4U5      -0.116000
      3 CAC          5.0170     1.4230     1.5600 c3         1 4U5      -0.085433
      4 CAD          3.6230     2.9840     0.1940 c3         1 4U5      -0.085433
      5 CAR          3.6930     0.4690    -0.2700 c          1 4U5       0.673100
      6 OAF          4.2610    -0.5790    -0.5480 o          1 4U5      -0.609100
      7 N            2.3510     0.5420    -0.2810 ns         1 4U5      -0.562900
      8 CA           1.5500    -0.6110    -0.5960 c3         1 4U5       0.093000
      9 C            1.9040    -1.7680     0.3480 c          1 4U5       0.674100
     10 O            2.0810    -1.6120     1.5370 o          1 4U5      -0.558100
     11 NAO          1.8710    -2.9620    -0.2710 ns         1 4U5      -0.439400
     12 OAG          2.2320    -4.0820     0.4170 oh         1 4U5      -0.387100
     13 CAU          0.0820    -0.3020    -0.4330 ca         1 4U5      -0.124300
     14 CAK         -0.4080     0.2690     0.7390 ca         1 4U5      -0.104000
     15 CAI         -1.7600     0.5280     0.8850 ca         1 4U5      -0.131500
     16 CAJ         -0.8170    -0.6130    -1.4470 ca         1 4U5      -0.104000
     17 CAH         -2.1700    -0.3550    -1.3000 ca         1 4U5      -0.131500
     18 CAS         -2.6690     0.2210    -0.1310 ca         1 4U5       0.036000
     19 CAT         -4.0930     0.4990     0.0310 cc         1 4U5      -0.232300
     20 CAM         -5.1480     0.0130    -0.7200 cd         1 4U5      -0.119300
     21 CAL         -4.7230     1.3260     0.9830 cc         1 4U5       0.324200
     22 NAN         -6.0320     1.3410     0.8230 nd         1 4U5      -0.523800
     23 NAW         -6.2710     0.5390    -0.2100 na         1 4U5       0.115400
     24 CAA         -7.6250     0.3160    -0.6550 c3         1 4U5       0.042600
     25 H1           6.2890     1.0430    -0.8480 hc         1 4U5       0.042478
     26 H2           5.2760     2.1030    -1.8350 hc         1 4U5       0.042478
     27 H3           6.2300     2.7730    -0.5140 hc         1 4U5       0.042478
     28 H4           5.5930     2.2760     1.9200 hc         1 4U5       0.042478
     29 H5           4.2090     1.2430     2.2720 hc         1 4U5       0.042478
     30 H6           5.6710     0.5510     1.5620 hc         1 4U5       0.042478
     31 H7           3.1720     3.2090    -0.7750 hc         1 4U5       0.042478
     32 H8           2.8290     2.9350     0.9430 hc         1 4U5       0.042478
     33 H9           4.2520     3.8330     0.4610 hc         1 4U5       0.042478
     34 H10          1.8800     1.4170    -0.1220 hn         1 4U5       0.331500
     35 H11          1.7260    -0.9180    -1.6330 h1         1 4U5       0.060700
     36 H12          1.9630    -3.0430    -1.2740 hn         1 4U5       0.332500
     37 H13          1.4070    -4.5190     0.6630 ho         1 4U5       0.404000
     38 H14          0.2640     0.5020     1.5550 ha         1 4U5       0.139000
     39 H15         -2.1100     0.9620     1.8130 ha         1 4U5       0.132000
     40 H16         -0.4570    -1.0530    -2.3690 ha         1 4U5       0.139000
     41 H17         -2.8390    -0.5950    -2.1170 ha         1 4U5       0.132000
     42 H18         -5.1750    -0.6680    -1.5550 h4         1 4U5       0.172000
     43 H19         -4.2680     1.9160     1.7650 h4         1 4U5       0.040100
     44 H20         -8.2170    -0.1320     0.1410 h1         1 4U5       0.058033
     45 H21         -8.0840     1.2550    -0.9560 h1         1 4U5       0.058033
     46 H22         -7.6110    -0.3590    -1.5060 h1         1 4U5       0.058033
@<TRIPOS>BOND
     1     1     2 1   
     2     1    25 1   
     3     1    26 1   
     4     1    27 1   
     5     2     3 1   
     6     2     4 1   
     7     2     5 1   
     8     3    28 1   
     9     3    29 1   
    10     3    30 1   
    11     4    31 1   
    12     4    32 1   
    13     4    33 1   
    14     5     6 2   
    15     5     7 1   
    16     7     8 1   
    17     7    34 1   
    18     8     9 1   
    19     8    13 1   
    20     8    35 1   
    21     9    10 2   
    22     9    11 1   
    23    11    12 1   
    24    11    36 1   
    25    12    37 1   
    26    13    14 ar  
    27    13    16 ar  
    28    14    15 ar  
    29    14    38 1   
    30    15    18 ar  
    31    15    39 1   
    32    16    17 ar  
    33    16    40 1   
    34    17    18 ar  
    35    17    41 1   
    36    18    19 1   
    37    19    20 2   
    38    19    21 1   
    39    20    23 1   
    40    20    42 1   
    41    21    22 2   
    42    21    43 1   
    43    22    23 1   
    44    23    24 1   
    45    24    44 1   
    46    24    45 1   
    47    24    46 1   
@<TRIPOS>SUBSTRUCTURE
     1 4U5         1 TEMP              0 ****  ****    0 ROOT
