@<TRIPOS>MOLECULE
4U6
   52    53     1     0     0
SMALL
No Charge or Current Charge


@<TRIPOS>ATOM
      1 CAA          6.9560     1.3500    -0.0030 c3         1 4U6      -0.082100
      2 CBB          5.5860     1.7760    -0.5970 c3         1 4U6      -0.117000
      3 CAB          4.8660     2.7020     0.4310 c3         1 4U6      -0.082100
      4 CAC          5.8120     2.5770    -1.9090 c3         1 4U6      -0.082100
      5 CAV          4.7650     0.4880    -0.9320 c          1 4U6       0.606100
      6 OAF          5.1670    -0.3560    -1.7230 o          1 4U6      -0.601100
      7 N            3.5510     0.3360    -0.2970 ns         1 4U6      -0.497900
      8 CA           2.6470    -0.8160    -0.4810 c3         1 4U6       0.091000
      9 C            3.1030    -2.0540     0.3550 c          1 4U6       0.606100
     10 O            3.9940    -2.0120     1.2000 o          1 4U6      -0.557100
     11 NAR          2.3870    -3.2220     0.0980 ns         1 4U6      -0.371400
     12 OAH          2.8410    -4.5040     0.5980 oh         1 4U6      -0.425100
     13 CAZ          1.2140    -0.4060    -0.1500 ca         1 4U6      -0.111300
     14 CAO          0.8430    -0.1050     1.1750 ca         1 4U6      -0.092000
     15 CAM         -0.4770     0.2750     1.4740 ca         1 4U6      -0.101000
     16 CAN          0.2480    -0.3160    -1.1700 ca         1 4U6      -0.092000
     17 CAL         -1.0710     0.0640    -0.8680 ca         1 4U6      -0.101000
     18 CAX         -1.4620     0.3670     0.4600 cp         1 4U6      -0.022000
     19 CAY         -2.8680     0.7730     0.7810 cp         1 4U6      -0.046000
     20 CAP         -3.9700     0.2040     0.0920 ca         1 4U6      -0.057000
     21 CAK         -3.1370     1.7380     1.7800 ca         1 4U6      -0.084000
     22 CAI         -4.4530     2.1260     2.0710 ca         1 4U6      -0.118000
     23 CAJ         -5.5300     1.5510     1.3790 ca         1 4U6      -0.086000
     24 CAW         -5.3060     0.5650     0.3890 ca         1 4U6      -0.142900
     25 CAT         -6.4450    -0.0380    -0.3870 ce         1 4U6       0.628800
     26 NAD         -7.6680    -0.0390     0.2360 nv         1 4U6      -1.038200
     27 NAQ         -6.2540    -0.6060    -1.5440 n2         1 4U6      -0.420700
     28 OAG         -7.3450    -1.3380    -2.1010 oh         1 4U6      -0.537000
     29 H1           6.8170     0.7640     0.9140 hc         1 4U6       0.041367
     30 H2           7.5210     0.7350    -0.7140 hc         1 4U6       0.041367
     31 H3           7.5680     2.2260     0.2430 hc         1 4U6       0.041367
     32 H4           5.4710     3.5930     0.6400 hc         1 4U6       0.041367
     33 H5           3.8970     3.0460     0.0480 hc         1 4U6       0.041367
     34 H6           4.7020     2.1870     1.3850 hc         1 4U6       0.041367
     35 H7           6.3600     1.9790    -2.6470 hc         1 4U6       0.041367
     36 H8           4.8540     2.8690    -2.3560 hc         1 4U6       0.041367
     37 H9           6.3910     3.4890    -1.7190 hc         1 4U6       0.041367
     38 H10          3.2740     1.0680     0.3430 hn         1 4U6       0.328500
     39 H11          2.6890    -1.1190    -1.5360 h1         1 4U6       0.061700
     40 H12          1.7400    -3.2480    -0.6890 hn         1 4U6       0.333500
     41 H13          2.0370    -4.8840     1.0250 ho         1 4U6       0.444000
     42 H14          1.5740    -0.1670     1.9780 ha         1 4U6       0.123500
     43 H15         -0.7400     0.4880     2.5070 ha         1 4U6       0.121500
     44 H16          0.5180    -0.5340    -2.2010 ha         1 4U6       0.123500
     45 H17         -1.7920     0.1390    -1.6770 ha         1 4U6       0.121500
     46 H18         -3.7780    -0.5490    -0.6680 ha         1 4U6       0.133000
     47 H19         -2.3180     2.2080     2.3200 ha         1 4U6       0.117000
     48 H20         -4.6390     2.8820     2.8310 ha         1 4U6       0.118000
     49 H21         -6.5390     1.8890     1.6110 ha         1 4U6       0.123000
     50 H22         -7.6360    -0.0810     1.2470 hn         1 4U6       0.471500
     51 H24         -7.0170    -1.6850    -2.9670 ho         1 4U6       0.467000
     52 H25         -8.3240    -0.6690    -0.2130 hn         1 4U6       0.471500
@<TRIPOS>BOND
     1     1     2 1   
     2     1    29 1   
     3     1    30 1   
     4     1    31 1   
     5     2     3 1   
     6     2     4 1   
     7     2     5 1   
     8     3    32 1   
     9     3    33 1   
    10     3    34 1   
    11     4    35 1   
    12     4    36 1   
    13     4    37 1   
    14     5     6 2   
    15     5     7 1   
    16     7     8 1   
    17     7    38 1   
    18     8     9 1   
    19     8    13 1   
    20     8    39 1   
    21     9    10 2   
    22     9    11 1   
    23    11    12 1   
    24    11    40 1   
    25    12    41 1   
    26    13    14 ar  
    27    13    16 ar  
    28    14    15 ar  
    29    14    42 1   
    30    15    18 ar  
    31    15    43 1   
    32    16    17 ar  
    33    16    44 1   
    34    17    18 ar  
    35    17    45 1   
    36    18    19 1   
    37    19    20 ar  
    38    19    21 ar  
    39    20    24 ar  
    40    20    46 1   
    41    21    22 ar  
    42    21    47 1   
    43    22    23 ar  
    44    22    48 1   
    45    23    24 ar  
    46    23    49 1   
    47    24    25 1   
    48    25    26 1   
    49    25    27 2   
    50    26    50 1   
    51    26    52 1   
    52    27    28 1   
    53    28    51 1   
@<TRIPOS>SUBSTRUCTURE
     1 4U6         1 TEMP              0 ****  ****    0 ROOT
