@<TRIPOS>MOLECULE
4U6
   52    53     1     0     0
SMALL
abcg2


@<TRIPOS>ATOM
      1 CAA          7.1230     1.1600    -0.5050 c3         1 4U6      -0.082100
      2 CBB          5.6600     1.5140    -0.2540 c3         1 4U6      -0.117000
      3 CAB          5.4730     1.9000     1.2190 c3         1 4U6      -0.082100
      4 CAC          5.2620     2.6870    -1.1590 c3         1 4U6      -0.082100
      5 CAV          4.7820     0.3000    -0.5640 c          1 4U6       0.606100
      6 OAF          5.2290    -0.7830    -0.9120 o          1 4U6      -0.601100
      7 N            3.4550     0.4790    -0.4250 ns         1 4U6      -0.497900
      8 CA           2.5310    -0.5910    -0.6880 c3         1 4U6       0.091000
      9 C            2.8660    -1.8070     0.1880 c          1 4U6       0.606100
     10 O            3.1510    -1.7080     1.3620 o          1 4U6      -0.557100
     11 NAR          2.6880    -2.9700    -0.4630 ns         1 4U6      -0.371400
     12 OAH          3.0140    -4.1390     0.1580 oh         1 4U6      -0.425100
     13 CAZ          1.1160    -0.1680    -0.3790 ca         1 4U6      -0.111300
     14 CAO          0.7930     0.4320     0.8360 ca         1 4U6      -0.092000
     15 CAM         -0.5130     0.7980     1.1120 ca         1 4U6      -0.101000
     16 CAN          0.1020    -0.4050    -1.2990 ca         1 4U6      -0.092000
     17 CAL         -1.2070    -0.0450    -1.0180 ca         1 4U6      -0.101000
     18 CAX         -1.5360     0.5660     0.1910 cp         1 4U6      -0.022000
     19 CAY         -2.9270     0.9610     0.4910 cp         1 4U6      -0.046000
     20 CAP         -3.9920     0.1540     0.1010 ca         1 4U6      -0.057000
     21 CAK         -3.1980     2.1460     1.1780 ca         1 4U6      -0.084000
     22 CAI         -4.5050     2.5080     1.4610 ca         1 4U6      -0.118000
     23 CAJ         -5.5600     1.6990     1.0660 ca         1 4U6      -0.086000
     24 CAW         -5.3090     0.5120     0.3810 ca         1 4U6      -0.142900
     25 CAT         -6.4250    -0.3590    -0.0490 ce         1 4U6       0.628800
     26 NAD         -7.5780    -0.3080     0.6770 nv         1 4U6      -1.038200
     27 NAQ         -6.2400    -1.0520    -1.1110 n2         1 4U6      -0.420700
     28 OAG         -7.3420    -1.8420    -1.3930 oh         1 4U6      -0.537000
     29 H1           7.4570     0.3370     0.1260 hc         1 4U6       0.041367
     30 H2           7.3010     0.8840    -1.5440 hc         1 4U6       0.041367
     31 H3           7.7470     2.0260    -0.2790 hc         1 4U6       0.041367
     32 H4           6.1370     2.7290     1.4700 hc         1 4U6       0.041367
     33 H5           4.4540     2.2190     1.4410 hc         1 4U6       0.041367
     34 H6           5.7160     1.0690     1.8830 hc         1 4U6       0.041367
     35 H7           5.3360     2.4190    -2.2150 hc         1 4U6       0.041367
     36 H8           4.2480     3.0450    -0.9740 hc         1 4U6       0.041367
     37 H9           5.9340     3.5280    -0.9840 hc         1 4U6       0.041367
     38 H10          3.0840     1.3830    -0.1850 hn         1 4U6       0.328500
     39 H11          2.5820    -0.8760    -1.7440 h1         1 4U6       0.061700
     40 H12          2.6960    -3.0200    -1.4730 hn         1 4U6       0.333500
     41 H13          2.1780    -4.5290     0.4430 ho         1 4U6       0.444000
     42 H14          1.5580     0.6060     1.5820 ha         1 4U6       0.123500
     43 H15         -0.7420     1.2500     2.0690 ha         1 4U6       0.121500
     44 H16          0.3370    -0.8630    -2.2520 ha         1 4U6       0.123500
     45 H17         -1.9720    -0.2200    -1.7640 ha         1 4U6       0.121500
     46 H18         -3.7990    -0.7830    -0.4040 ha         1 4U6       0.133000
     47 H19         -2.3860     2.7970     1.4770 ha         1 4U6       0.117000
     48 H20         -4.7060     3.4350     1.9830 ha         1 4U6       0.118000
     49 H21         -6.5750     2.0080     1.2790 ha         1 4U6       0.123000
     50 H22         -7.4950    -0.0880     1.6550 hn         1 4U6       0.471500
     51 H24         -7.1030    -2.2840    -2.2130 ho         1 4U6       0.467000
     52 H25         -8.2780    -1.0050     0.4800 hn         1 4U6       0.471500
@<TRIPOS>BOND
     1     1     2 1   
     2     1    29 1   
     3     1    30 1   
     4     1    31 1   
     5     2     3 1   
     6     2     4 1   
     7     2     5 1   
     8     3    32 1   
     9     3    33 1   
    10     3    34 1   
    11     4    35 1   
    12     4    36 1   
    13     4    37 1   
    14     5     6 2   
    15     5     7 1   
    16     7     8 1   
    17     7    38 1   
    18     8     9 1   
    19     8    13 1   
    20     8    39 1   
    21     9    10 2   
    22     9    11 1   
    23    11    12 1   
    24    11    40 1   
    25    12    41 1   
    26    13    14 ar  
    27    13    16 ar  
    28    14    15 ar  
    29    14    42 1   
    30    15    18 ar  
    31    15    43 1   
    32    16    17 ar  
    33    16    44 1   
    34    17    18 ar  
    35    17    45 1   
    36    18    19 1   
    37    19    20 ar  
    38    19    21 ar  
    39    20    24 ar  
    40    20    46 1   
    41    21    22 ar  
    42    21    47 1   
    43    22    23 ar  
    44    22    48 1   
    45    23    24 ar  
    46    23    49 1   
    47    24    25 1   
    48    25    26 1   
    49    25    27 2   
    50    26    50 1   
    51    26    52 1   
    52    27    28 1   
    53    28    51 1   
@<TRIPOS>SUBSTRUCTURE
     1 4U6         1 TEMP              0 ****  ****    0 ROOT
