@<TRIPOS>MOLECULE
4U8
   60    63     1     0     0
SMALL
abcg2


@<TRIPOS>ATOM
      1 O1          11.4900    15.5860    33.5100 os         1 4U8      -0.370100
      2 C7          17.4980    16.6580    23.2070 ca         1 4U8      -0.111000
      3 O2          16.9640    17.3500    33.7250 o          1 4U8      -0.701000
      4 C6          18.1220    17.7990    22.7020 ca         1 4U8      -0.089300
      5 C1          15.8510    16.7960    27.2570 ca         1 4U8      -0.113000
      6 N1          16.1310    17.2810    30.9310 na         1 4U8       0.007500
      7 C5          18.3810    18.8330    23.6100 ca         1 4U8      -0.111000
      8 C4          18.0330    18.7320    24.9480 ca         1 4U8      -0.113000
      9 C3          17.4070    17.5850    25.4530 cp         1 4U8       0.008000
     10 C2          17.0340    17.4770    26.8820 cp         1 4U8      -0.098000
     11 O3          18.0700    19.2500    33.2640 o          1 4U8      -0.701000
     12 C16         17.1810    18.0290    31.4660 cc         1 4U8      -0.058300
     13 C15         17.9990    18.4410    30.4420 cd         1 4U8      -0.266200
     14 C19         14.9670    16.8210    31.6080 ca         1 4U8       0.024800
     15 C24         14.1020    17.7270    32.2170 ca         1 4U8      -0.059500
     16 C23         12.9600    17.2790    32.8550 ca         1 4U8      -0.167500
     17 C22         12.6490    15.9140    32.8800 ca         1 4U8       0.126100
     18 C25         11.1320    14.1990    33.7080 c3         1 4U8       0.178300
     19 C27         11.9500    13.5970    34.8410 c3         1 4U8      -0.104600
     20 C26          9.6430    14.1930    33.9970 c3         1 4U8      -0.104600
     21 C21         13.5090    15.0070    32.2590 ca         1 4U8      -0.167500
     22 C20         14.6620    15.4680    31.6310 ca         1 4U8      -0.059500
     23 C17         16.2740    17.2390    29.5560 ca         1 4U8      -0.054200
     24 C18         15.4580    16.6720    28.5780 ca         1 4U8      -0.123000
     25 C14         17.4530    17.9500    29.2160 ca         1 4U8      -0.088800
     26 C13         17.8280    18.0520    27.8710 ca         1 4U8      -0.056000
     27 C8          17.1490    16.5520    24.5500 ca         1 4U8      -0.113000
     28 C12         20.0370    18.1830    21.1330 c3         1 4U8      -0.080433
     29 C11         18.1600    16.7170    20.3990 c3         1 4U8      -0.080433
     30 C10         17.7810    19.1680    20.6320 c3         1 4U8      -0.080433
     31 H1          17.2800    15.8230    22.5560 ha         1 4U8       0.101000
     32 H3          15.2220    16.3750    26.4840 ha         1 4U8       0.093000
     33 H4          18.8560    19.7430    23.2680 ha         1 4U8       0.101000
     34 H5          18.2330    19.5660    25.6090 ha         1 4U8       0.114500
     35 H6          18.9050    19.0110    30.5680 ha         1 4U8       0.211000
     36 H7          14.3340    18.7840    32.1940 ha         1 4U8       0.127000
     37 H8          12.2850    17.9760    33.3340 ha         1 4U8       0.111000
     38 H9          11.3160    13.6570    32.7770 h1         1 4U8       0.038700
     39 H10         11.6820    12.5470    34.9720 hc         1 4U8       0.043367
     40 H11         13.0190    13.6520    34.6390 hc         1 4U8       0.043367
     41 H12         11.7420    14.1270    35.7730 hc         1 4U8       0.043367
     42 H13          9.2990    13.1680    34.1440 hc         1 4U8       0.043367
     43 H14          9.4280    14.7630    34.9030 hc         1 4U8       0.043367
     44 H15          9.0870    14.6300    33.1660 hc         1 4U8       0.043367
     45 H16         13.3050    13.9470    32.2640 ha         1 4U8       0.111000
     46 H17         15.3360    14.7610    31.1630 ha         1 4U8       0.127000
     47 H18         14.5430    16.1570    28.8380 ha         1 4U8       0.109000
     48 H19         18.7410    18.5710    27.6050 ha         1 4U8       0.104000
     49 H20         16.6830    15.6380    24.8990 ha         1 4U8       0.114500
     50 H21         20.5830    17.3340    21.5490 hc         1 4U8       0.032033
     51 H22         20.3320    18.3010    20.0870 hc         1 4U8       0.032033
     52 H23         20.3420    19.0810    21.6720 hc         1 4U8       0.032033
     53 H24         18.6730    15.8250    20.7630 hc         1 4U8       0.032033
     54 H25         17.0860    16.5220    20.4070 hc         1 4U8       0.032033
     55 H26         18.4630    16.8780    19.3630 hc         1 4U8       0.032033
     56 H27         18.0340    20.0890    21.1580 hc         1 4U8       0.032033
     57 H28         18.0570    19.2920    19.5820 hc         1 4U8       0.032033
     58 H29         16.6990    19.0290    20.6870 hc         1 4U8       0.032033
     59 C28         17.4120    18.2270    32.9480 c          1 4U8       0.716200
     60 C9          18.5170    17.9540    21.2310 c3         1 4U8       0.001300
@<TRIPOS>BOND
     1     1    17 1   
     2     1    18 1   
     3     2     4 ar  
     4     2    27 ar  
     5     2    31 1   
     6     3    59 1   
     7     4     7 ar  
     8     4    60 1   
     9     5    10 ar  
    10     5    24 ar  
    11     5    32 1   
    12     6    12 1   
    13     6    14 1   
    14     6    23 1   
    15     7     8 ar  
    16     7    33 1   
    17     8     9 ar  
    18     8    34 1   
    19     9    10 1   
    20     9    27 ar  
    21    10    26 ar  
    22    11    59 1   
    23    12    13 2   
    24    12    59 1   
    25    13    25 1   
    26    13    35 1   
    27    14    15 ar  
    28    14    22 ar  
    29    15    16 ar  
    30    15    36 1   
    31    16    17 ar  
    32    16    37 1   
    33    17    21 ar  
    34    18    19 1   
    35    18    20 1   
    36    18    38 1   
    37    19    39 1   
    38    19    40 1   
    39    19    41 1   
    40    20    42 1   
    41    20    43 1   
    42    20    44 1   
    43    21    22 ar  
    44    21    45 1   
    45    22    46 1   
    46    23    24 ar  
    47    23    25 ar  
    48    24    47 1   
    49    25    26 ar  
    50    26    48 1   
    51    27    49 1   
    52    28    50 1   
    53    28    51 1   
    54    28    52 1   
    55    28    60 1   
    56    29    53 1   
    57    29    54 1   
    58    29    55 1   
    59    29    60 1   
    60    30    56 1   
    61    30    57 1   
    62    30    58 1   
    63    30    60 1   
@<TRIPOS>SUBSTRUCTURE
     1 4U8         1 TEMP              0 ****  ****    0 ROOT
