@<TRIPOS>MOLECULE
4U8
   60    63     1     0     0
SMALL
No Charge or Current Charge


@<TRIPOS>ATOM
      1 O1          11.3940    15.4820    33.4940 os         1 4U8      -0.370100
      2 C7          17.4820    16.7150    23.0700 ca         1 4U8      -0.111000
      3 O2          16.6370    17.7130    33.8060 o          1 4U8      -0.701000
      4 C6          18.1790    17.8630    22.6200 ca         1 4U8      -0.089300
      5 C1          15.7450    16.7860    27.1490 ca         1 4U8      -0.113000
      6 N1          16.0310    17.1920    30.8650 na         1 4U8       0.007500
      7 C5          18.4660    18.8700    23.5700 ca         1 4U8      -0.111000
      8 C4          18.0750    18.7370    24.9130 ca         1 4U8      -0.113000
      9 C3          17.3780    17.5930    25.3660 cp         1 4U8       0.008000
     10 C2          16.9610    17.4530    26.7990 cp         1 4U8      -0.098000
     11 O3          18.4260    18.7360    33.2250 o          1 4U8      -0.701000
     12 C16         17.1040    17.8520    31.5050 cc         1 4U8      -0.058300
     13 C15         17.9110    18.2350    30.4290 cd         1 4U8      -0.266200
     14 C19         14.8930    16.7530    31.5370 ca         1 4U8       0.024800
     15 C24         13.9400    17.6790    31.9990 ca         1 4U8      -0.059500
     16 C23         12.7790    17.2290    32.6530 ca         1 4U8      -0.167500
     17 C22         12.5600    15.8560    32.8530 ca         1 4U8       0.126100
     18 C25         11.1300    14.1390    33.9460 c3         1 4U8       0.178300
     19 C27         12.0050    13.8540    35.1880 c3         1 4U8      -0.104600
     20 C26          9.6250    14.0690    34.2680 c3         1 4U8      -0.104600
     21 C21         13.5100    14.9250    32.3760 ca         1 4U8      -0.167500
     22 C20         14.6710    15.3760    31.7220 ca         1 4U8      -0.059500
     23 C17         16.1710    17.1820    29.4860 ca         1 4U8      -0.054200
     24 C18         15.3390    16.6460    28.4940 ca         1 4U8      -0.123000
     25 C14         17.3340    17.8220    29.1700 ca         1 4U8      -0.088800
     26 C13         17.7670    17.9810    27.8490 ca         1 4U8      -0.056000
     27 C8          17.0920    16.5870    24.4140 ca         1 4U8      -0.113000
     28 C12         20.1740    18.2020    21.0970 c3         1 4U8      -0.080433
     29 C11         18.2390    16.8530    20.2320 c3         1 4U8      -0.080433
     30 C10         17.9680    19.3280    20.5650 c3         1 4U8      -0.080433
     31 H1          17.2320    15.9020    22.3960 ha         1 4U8       0.101000
     32 H3          15.1020    16.3870    26.3690 ha         1 4U8       0.093000
     33 H4          18.9950    19.7710    23.2730 ha         1 4U8       0.101000
     34 H5          18.3040    19.5420    25.6060 ha         1 4U8       0.114500
     35 H6          18.8490    18.7760    30.5350 ha         1 4U8       0.211000
     36 H7          14.0990    18.7450    31.8490 ha         1 4U8       0.127000
     37 H8          12.0460    17.9490    33.0090 ha         1 4U8       0.111000
     38 H9          11.3410    13.4040    33.1580 h1         1 4U8       0.038700
     39 H10         11.7800    12.8600    35.5920 hc         1 4U8       0.043367
     40 H11         13.0710    13.8800    34.9390 hc         1 4U8       0.043367
     41 H12         11.8160    14.5940    35.9740 hc         1 4U8       0.043367
     42 H13          9.3550    13.0670    34.6220 hc         1 4U8       0.043367
     43 H14          9.3570    14.7940    35.0470 hc         1 4U8       0.043367
     44 H15          9.0310    14.2850    33.3730 hc         1 4U8       0.043367
     45 H16         13.3660    13.8560    32.4960 ha         1 4U8       0.111000
     46 H17         15.3980    14.6560    31.3530 ha         1 4U8       0.127000
     47 H18         14.4100    16.1410    28.7490 ha         1 4U8       0.109000
     48 H19         18.7060    18.4860    27.6410 ha         1 4U8       0.104000
     49 H20         16.5710    15.6850    24.7230 ha         1 4U8       0.114500
     50 H21         20.6630    17.3240    21.5370 hc         1 4U8       0.032033
     51 H22         20.5270    18.3020    20.0630 hc         1 4U8       0.032033
     52 H23         20.5110    19.0880    21.6470 hc         1 4U8       0.032033
     53 H24         18.7030    15.9220    20.5800 hc         1 4U8       0.032033
     54 H25         17.1510    16.7140    20.2060 hc         1 4U8       0.032033
     55 H26         18.5740    17.0220    19.2010 hc         1 4U8       0.032033
     56 H27         18.2780    20.2280    21.1090 hc         1 4U8       0.032033
     57 H28         18.2420    19.4690    19.5120 hc         1 4U8       0.032033
     58 H29         16.8750    19.2580    20.6230 hc         1 4U8       0.032033
     59 C28         17.4050    18.1200    32.9460 c          1 4U8       0.716200
     60 C9          18.6300    18.0500    21.1450 c3         1 4U8       0.001300
@<TRIPOS>BOND
     1     1    17 1   
     2     1    18 1   
     3     2     4 ar  
     4     2    27 ar  
     5     2    31 1   
     6     3    59 1   
     7     4     7 ar  
     8     4    60 1   
     9     5    10 ar  
    10     5    24 ar  
    11     5    32 1   
    12     6    12 1   
    13     6    14 1   
    14     6    23 1   
    15     7     8 ar  
    16     7    33 1   
    17     8     9 ar  
    18     8    34 1   
    19     9    10 1   
    20     9    27 ar  
    21    10    26 ar  
    22    11    59 1   
    23    12    13 2   
    24    12    59 1   
    25    13    25 1   
    26    13    35 1   
    27    14    15 ar  
    28    14    22 ar  
    29    15    16 ar  
    30    15    36 1   
    31    16    17 ar  
    32    16    37 1   
    33    17    21 ar  
    34    18    19 1   
    35    18    20 1   
    36    18    38 1   
    37    19    39 1   
    38    19    40 1   
    39    19    41 1   
    40    20    42 1   
    41    20    43 1   
    42    20    44 1   
    43    21    22 ar  
    44    21    45 1   
    45    22    46 1   
    46    23    24 ar  
    47    23    25 ar  
    48    24    47 1   
    49    25    26 ar  
    50    26    48 1   
    51    27    49 1   
    52    28    50 1   
    53    28    51 1   
    54    28    52 1   
    55    28    60 1   
    56    29    53 1   
    57    29    54 1   
    58    29    55 1   
    59    29    60 1   
    60    30    56 1   
    61    30    57 1   
    62    30    58 1   
    63    30    60 1   
@<TRIPOS>SUBSTRUCTURE
     1 4U8         1 TEMP              0 ****  ****    0 ROOT
