@<TRIPOS>MOLECULE
4U9
   43    46     1     0     0
SMALL
abcg2


@<TRIPOS>ATOM
      1 C7          -2.9450     0.0450     0.1260 cg         1 4U9      -0.195000
      2 C6          -1.5260    -0.0880     0.1210 ca         1 4U9       0.474000
      3 C1           4.7240     0.3990    -0.0920 cc         1 4U9       0.467000
      4 N1           3.4450     0.7560     0.1370 na         1 4U9      -0.265500
      5 C5           0.4920     0.8250    -0.4140 ca         1 4U9       0.347900
      6 C4           1.1980    -0.2940     0.0400 ca         1 4U9      -0.063000
      7 C3           3.5390    -1.3190    -0.4250 cd         1 4U9       0.307200
      8 C2           2.6470    -0.3370    -0.0630 cc         1 4U9      -0.119000
      9 C23          6.9640     1.0820     0.8270 ca         1 4U9       0.177000
     10 C22          8.0300     1.9650     0.8810 ca         1 4U9      -0.126000
     11 C21          7.9940     3.1230     0.1180 ca         1 4U9      -0.061000
     12 C20          6.9070     3.4050    -0.6940 ca         1 4U9      -0.155000
     13 C19          5.8660     2.5020    -0.7250 ca         1 4U9       0.194000
     14 F4           4.8180     2.7530    -1.5170 f          1 4U9      -0.171000
     15 C18          5.8520     1.3270     0.0190 ca         1 4U9      -0.171500
     16 N2           4.8050    -0.8630    -0.4450 nd         1 4U9      -0.614000
     17 C17          0.4550    -1.3440     0.5740 ca         1 4U9      -0.047000
     18 C16         -0.9230    -1.2460     0.6100 ca         1 4U9      -0.135000
     19 N3          -0.8220     0.9330    -0.3750 nb         1 4U9      -0.647000
     20 C8          -4.1470     0.1460     0.1230 ch         1 4U9      -0.088000
     21 C9          -5.5640     0.2620     0.1130 ca         1 4U9       0.056000
     22 C15         -6.3600    -0.7610     0.6360 ca         1 4U9      -0.093500
     23 C14         -7.7370    -0.6480     0.6200 ca         1 4U9      -0.063000
     24 C12         -8.3380     0.4850     0.0800 ca         1 4U9      -0.190300
     25 C13         -9.8290     0.6050     0.1120 c3         1 4U9       0.357300
     26 F3         -10.2660     0.9580     1.3300 f          1 4U9      -0.112667
     27 F2         -10.2880     1.5200    -0.7460 f          1 4U9      -0.112667
     28 F1         -10.4300    -0.5530    -0.1880 f          1 4U9      -0.112667
     29 C11         -7.5540     1.5080    -0.4380 ca         1 4U9      -0.063000
     30 C10         -6.1740     1.3980    -0.4240 ca         1 4U9      -0.093500
     31 H1           3.1350     1.6480     0.4940 hn         1 4U9       0.363000
     32 H2           1.0240     1.6670    -0.8450 h4         1 4U9       0.023100
     33 H3           8.8770     1.7540     1.5180 ha         1 4U9       0.139000
     34 H4           8.8250     3.8140     0.1590 ha         1 4U9       0.127000
     35 H5           6.8700     4.3020    -1.2970 ha         1 4U9       0.141000
     36 H7           0.9400    -2.2220     0.9760 ha         1 4U9       0.138000
     37 H8          -1.5240    -2.0460     1.0190 ha         1 4U9       0.136000
     38 H9          -5.8970    -1.6440     1.0540 ha         1 4U9       0.130000
     39 H10         -8.3310    -1.4540     1.0300 ha         1 4U9       0.133000
     40 H11         -8.0010     2.3980    -0.8600 ha         1 4U9       0.133000
     41 H12         -5.5680     2.1950    -0.8310 ha         1 4U9       0.130000
     42 BR1          3.1440    -3.0650    -0.9350 br         1 4U9      -0.117200
     43 CL1          7.0140    -0.3330     1.8120 cl         1 4U9      -0.159000
@<TRIPOS>BOND
     1     1     2 1   
     2     1    20 3   
     3     2    18 ar  
     4     2    19 ar  
     5     3     4 1   
     6     3    15 1   
     7     3    16 2   
     8     4     8 1   
     9     4    31 1   
    10     5     6 ar  
    11     5    19 ar  
    12     5    32 1   
    13     6     8 1   
    14     6    17 ar  
    15     7     8 2   
    16     7    16 1   
    17     7    42 1   
    18     9    10 ar  
    19     9    15 ar  
    20     9    43 1   
    21    10    11 ar  
    22    10    33 1   
    23    11    12 ar  
    24    11    34 1   
    25    12    13 ar  
    26    12    35 1   
    27    13    14 1   
    28    13    15 ar  
    29    17    18 ar  
    30    17    36 1   
    31    18    37 1   
    32    20    21 1   
    33    21    22 ar  
    34    21    30 ar  
    35    22    23 ar  
    36    22    38 1   
    37    23    24 ar  
    38    23    39 1   
    39    24    25 1   
    40    24    29 ar  
    41    25    26 1   
    42    25    27 1   
    43    25    28 1   
    44    29    30 ar  
    45    29    40 1   
    46    30    41 1   
@<TRIPOS>SUBSTRUCTURE
     1 4U9         1 TEMP              0 ****  ****    0 ROOT
