@<TRIPOS>MOLECULE
4U9
   43    46     1     0     0
SMALL
No Charge or Current Charge


@<TRIPOS>ATOM
      1 C7          -3.0090     0.0940     0.0720 cg         1 4U9      -0.195000
      2 C6          -1.5790    -0.0080     0.0880 ca         1 4U9       0.474000
      3 C1           4.7740     0.4790    -0.0150 cc         1 4U9       0.467000
      4 N1           3.4920     0.9450     0.1620 na         1 4U9      -0.265500
      5 C5           0.4500     0.9160    -0.5280 ca         1 4U9       0.347900
      6 C4           1.1810    -0.1340     0.0700 ca         1 4U9      -0.063000
      7 C3           3.4410    -1.2030    -0.2910 cd         1 4U9       0.307200
      8 C2           2.6460    -0.1300     0.0370 cc         1 4U9      -0.119000
      9 C23          7.1750     0.8750     0.6420 ca         1 4U9       0.177000
     10 C22          8.3160     1.6980     0.6510 ca         1 4U9      -0.126000
     11 C21          8.2820     2.9720     0.0660 ca         1 4U9      -0.061000
     12 C20          7.0970     3.4250    -0.5300 ca         1 4U9      -0.155000
     13 C19          5.9550     2.6110    -0.5400 ca         1 4U9       0.194000
     14 F4           4.8450     3.0770    -1.1550 f          1 4U9      -0.171000
     15 C18          5.9670     1.3270     0.0520 ca         1 4U9      -0.171500
     16 N2           4.7630    -0.8140    -0.3120 nd         1 4U9      -0.614000
     17 C17          0.4610    -1.1530     0.7220 ca         1 4U9      -0.047000
     18 C16         -0.9420    -1.0870     0.7250 ca         1 4U9      -0.135000
     19 N3          -0.9020     0.9840    -0.5290 nb         1 4U9      -0.647000
     20 C8          -4.2280     0.1670     0.0660 ch         1 4U9      -0.088000
     21 C9          -5.6520     0.2370     0.0670 ca         1 4U9       0.056000
     22 C15         -6.4120    -0.8190     0.5990 ca         1 4U9      -0.093500
     23 C14         -7.8160    -0.7510     0.6020 ca         1 4U9      -0.063000
     24 C12         -8.4800     0.3750     0.0670 ca         1 4U9      -0.190300
     25 C13        -10.0110     0.4560     0.0790 c3         1 4U9       0.357300
     26 F3         -10.4630     1.0280     1.2180 f          1 4U9      -0.112667
     27 F2         -10.4960     1.1870    -0.9500 f          1 4U9      -0.112667
     28 F1         -10.5920    -0.7630    -0.0070 f          1 4U9      -0.112667
     29 C11         -7.7090     1.4360    -0.4570 ca         1 4U9      -0.063000
     30 C10         -6.3050     1.3650    -0.4590 ca         1 4U9      -0.093500
     31 H1           3.2450     1.9040     0.3670 hn         1 4U9       0.363000
     32 H2           0.9660     1.7300    -1.0350 h4         1 4U9       0.023100
     33 H3           9.2310     1.3440     1.1200 ha         1 4U9       0.139000
     34 H4           9.1690     3.6030     0.0760 ha         1 4U9       0.127000
     35 H5           7.0630     4.4090    -0.9930 ha         1 4U9       0.141000
     36 H7           0.9700    -1.9680     1.2300 ha         1 4U9       0.138000
     37 H8          -1.5310    -1.8560     1.2180 ha         1 4U9       0.136000
     38 H9          -5.9150    -1.6940     1.0130 ha         1 4U9       0.130000
     39 H10         -8.3840    -1.5780     1.0250 ha         1 4U9       0.133000
     40 H11         -8.1930     2.3230    -0.8630 ha         1 4U9       0.133000
     41 H12         -5.7250     2.1900    -0.8680 ha         1 4U9       0.130000
     42 Br1          2.8910    -2.9540    -0.7420 br         1 4U9      -0.117200
     43 Cl1          7.3050    -0.6860     1.4580 cl         1 4U9      -0.159000
@<TRIPOS>BOND
     1     1     2 1   
     2     1    20 3   
     3     2    18 ar  
     4     2    19 ar  
     5     3     4 1   
     6     3    15 1   
     7     3    16 2   
     8     4     8 1   
     9     4    31 1   
    10     5     6 ar  
    11     5    19 ar  
    12     5    32 1   
    13     6     8 1   
    14     6    17 ar  
    15     7     8 2   
    16     7    16 1   
    17     7    42 1   
    18     9    10 ar  
    19     9    15 ar  
    20     9    43 1   
    21    10    11 ar  
    22    10    33 1   
    23    11    12 ar  
    24    11    34 1   
    25    12    13 ar  
    26    12    35 1   
    27    13    14 1   
    28    13    15 ar  
    29    17    18 ar  
    30    17    36 1   
    31    18    37 1   
    32    20    21 1   
    33    21    22 ar  
    34    21    30 ar  
    35    22    23 ar  
    36    22    38 1   
    37    23    24 ar  
    38    23    39 1   
    39    24    25 1   
    40    24    29 ar  
    41    25    26 1   
    42    25    27 1   
    43    25    28 1   
    44    29    30 ar  
    45    29    40 1   
    46    30    41 1   
@<TRIPOS>SUBSTRUCTURE
     1 4U9         1 TEMP              0 ****  ****    0 ROOT
