@<TRIPOS>MOLECULE
4UA
   72    75     1     0     0
SMALL
abcg2


@<TRIPOS>ATOM
      1 C35          3.1290    -4.7420    -0.5420 ca         1 4UA      -0.104000
      2 C34          2.1720    -4.3350    -1.4610 ca         1 4UA      -0.101500
      3 C36          3.1880    -4.1120     0.6910 ca         1 4UA      -0.101500
      4 C33          1.2900    -3.3120    -1.1460 ca         1 4UA      -0.103500
      5 C37          2.3020    -3.0890     1.0010 ca         1 4UA      -0.103500
      6 C3          -8.0050    -0.9350    -1.0380 ca         1 4UA      -0.115500
      7 C7          -8.4080     1.3960    -0.7180 ca         1 4UA      -0.115500
      8 C4          -7.0610    -0.9140    -0.0240 ca         1 4UA      -0.093000
      9 C6          -7.4590     1.4190     0.2970 ca         1 4UA      -0.093000
     10 C26          5.2460     4.2120    -0.7550 ca         1 4UA      -0.022000
     11 C27          4.1020     3.7600    -1.3950 ca         1 4UA      -0.216000
     12 C24          5.4960     2.1190     0.3460 ca         1 4UA       0.022000
     13 C32          1.3310    -2.6700     0.0920 ca         1 4UA      -0.077300
     14 C2          -8.6980     0.2200    -1.4020 ca         1 4UA      -0.067300
     15 C5          -6.7760     0.2660     0.6610 ca         1 4UA      -0.116300
     16 C25          5.9640     3.4090     0.1260 ca         1 4UA      -0.133300
     17 C28          3.6390     2.4670    -1.1690 ca         1 4UA       0.225100
     18 C23          4.3520     1.6490    -0.2840 ca         1 4UA      -0.329500
     19 C10         -3.3980    -0.2960     2.0630 c          1 4UA       0.648100
     20 C14          0.0600    -1.4640     1.9080 c6         1 4UA      -0.080400
     21 C16         -0.9280    -1.6280    -0.3490 c6         1 4UA      -0.080400
     22 C13         -0.9820    -0.4170     2.2640 c6         1 4UA       0.101000
     23 C17         -1.9820    -0.5990     0.0460 c6         1 4UA       0.101000
     24 C15          0.4020    -1.5050     0.4110 c6         1 4UA      -0.004700
     25 C18          1.1010    -0.2070    -0.0530 c3         1 4UA       0.256800
     26 N12         -2.1930    -0.5750     1.4790 n          1 4UA      -0.418800
     27 N9          -4.4440    -0.0560     1.2220 ns         1 4UA      -0.511900
     28 N19          2.3370     0.0580     0.6480 n7         1 4UA      -0.936300
     29 O11         -3.5500    -0.2990     3.2810 o          1 4UA      -0.638100
     30 O29          2.5460     1.9460    -1.7360 os         1 4UA      -0.349100
     31 S20          3.8310    -0.0260     0.0090 sy         1 4UA       1.208600
     32 H35          3.8180    -5.5420    -0.7840 ha         1 4UA       0.112000
     33 H34          2.1100    -4.8140    -2.4300 ha         1 4UA       0.112500
     34 H36          3.9270    -4.4150     1.4220 ha         1 4UA       0.112500
     35 H33          0.5630    -3.0200    -1.8920 ha         1 4UA       0.108500
     36 H37          2.3820    -2.6240     1.9730 ha         1 4UA       0.108500
     37 H3          -8.2060    -1.8650    -1.5570 ha         1 4UA       0.112500
     38 H4          -6.5370    -1.8260     0.2370 ha         1 4UA       0.116500
     39 H7          -8.9250     2.3120    -0.9830 ha         1 4UA       0.112500
     40 H6          -7.2490     2.3520     0.8090 ha         1 4UA       0.116500
     41 H26          5.5840     5.2210    -0.9550 ha         1 4UA       0.113000
     42 H27          3.5850     4.4260    -2.0710 ha         1 4UA       0.119000
     43 H24          6.0340     1.4700     1.0240 ha         1 4UA       0.144000
     44 H11C       -10.7150    -0.0940    -2.0760 hc         1 4UA       0.043033
     45 H12C        -9.8560     1.1620    -2.9550 hc         1 4UA       0.043033
     46 H13C        -9.4920    -0.5370    -3.2560 hc         1 4UA       0.043033
     47 H81C        -5.7400     1.2720     2.2390 h1         1 4UA       0.057700
     48 H82C        -6.0100    -0.4360     2.5300 h1         1 4UA       0.057700
     49 H311         6.9230     4.6090     1.6330 hc         1 4UA       0.043700
     50 H312         7.7680     3.1130     1.2640 hc         1 4UA       0.043700
     51 H313         7.8380     4.4690     0.1410 hc         1 4UA       0.043700
     52 H9          -4.2540     0.2990     0.2990 hn         1 4UA       0.304500
     53 H141         0.9450    -1.2680     2.5170 hc         1 4UA       0.057200
     54 H142        -0.3110    -2.4480     2.2090 hc         1 4UA       0.057200
     55 H131        -1.2270    -0.5070     3.3180 h1         1 4UA       0.043200
     56 H132        -0.5770     0.5930     2.1190 h1         1 4UA       0.043200
     57 H161        -1.3370    -2.6270    -0.1790 hc         1 4UA       0.057200
     58 H162        -0.7730    -1.5260    -1.4250 hc         1 4UA       0.057200
     59 H171        -1.7130     0.3980    -0.3270 h1         1 4UA       0.043200
     60 H172        -2.9020    -0.8880    -0.4600 h1         1 4UA       0.043200
     61 H181         1.3020    -0.2890    -1.1190 h1         1 4UA       0.054700
     62 H182         0.4460     0.6570     0.0710 h1         1 4UA       0.054700
     63 H301         1.3770     3.6440    -2.0400 h1         1 4UA       0.046700
     64 H302         2.2920     3.0870    -3.4610 h1         1 4UA       0.046700
     65 H303         0.9020     2.1550    -2.8770 h1         1 4UA       0.046700
     66 H19          2.2890     0.5010     1.5550 hn         1 4UA       0.493000
     67 C31          7.1880     3.9240     0.8260 c3         1 4UA      -0.041800
     68 O21          3.7340    -0.7170    -1.2650 o          1 4UA      -0.539500
     69 C8          -5.7460     0.2880     1.7580 c3         1 4UA       0.153300
     70 O22          4.7280    -0.5440     1.0310 o          1 4UA      -0.539500
     71 C1          -9.7400     0.1880    -2.4810 c3         1 4UA      -0.048800
     72 C30          1.7470     2.7650    -2.5720 c3         1 4UA       0.153900
@<TRIPOS>BOND
     1     1     2 ar  
     2     1     3 ar  
     3     1    32 1   
     4     2     4 ar  
     5     2    33 1   
     6     3     5 ar  
     7     3    34 1   
     8     4    13 ar  
     9     4    35 1   
    10     5    13 ar  
    11     5    36 1   
    12     6     8 ar  
    13     6    14 ar  
    14     6    37 1   
    15     7     9 ar  
    16     7    14 ar  
    17     7    39 1   
    18     8    15 ar  
    19     8    38 1   
    20     9    15 ar  
    21     9    40 1   
    22    10    11 ar  
    23    10    16 ar  
    24    10    41 1   
    25    11    17 ar  
    26    11    42 1   
    27    12    16 ar  
    28    12    18 ar  
    29    12    43 1   
    30    13    24 1   
    31    14    71 1   
    32    15    69 1   
    33    16    67 1   
    34    17    18 ar  
    35    17    30 1   
    36    18    31 1   
    37    19    26 1   
    38    19    27 1   
    39    19    29 2   
    40    20    22 1   
    41    20    24 1   
    42    20    53 1   
    43    20    54 1   
    44    21    23 1   
    45    21    24 1   
    46    21    57 1   
    47    21    58 1   
    48    22    26 1   
    49    22    55 1   
    50    22    56 1   
    51    23    26 1   
    52    23    59 1   
    53    23    60 1   
    54    24    25 1   
    55    25    28 1   
    56    25    61 1   
    57    25    62 1   
    58    27    52 1   
    59    27    69 1   
    60    28    31 1   
    61    28    66 1   
    62    30    72 1   
    63    31    68 2   
    64    31    70 2   
    65    44    71 1   
    66    45    71 1   
    67    46    71 1   
    68    47    69 1   
    69    48    69 1   
    70    49    67 1   
    71    50    67 1   
    72    51    67 1   
    73    63    72 1   
    74    64    72 1   
    75    65    72 1   
@<TRIPOS>SUBSTRUCTURE
     1 4UA         1 TEMP              0 ****  ****    0 ROOT
