@<TRIPOS>MOLECULE
4UA
   72    75     1     0     0
SMALL
No Charge or Current Charge


@<TRIPOS>ATOM
      1 C35          3.2360    -4.7040    -0.9250 ca         1 4UA      -0.104000
      2 C34          2.4770    -4.0400    -1.8980 ca         1 4UA      -0.101500
      3 C36          3.0880    -4.3590     0.4250 ca         1 4UA      -0.101500
      4 C33          1.5740    -3.0310    -1.5210 ca         1 4UA      -0.103500
      5 C37          2.1850    -3.3500     0.8050 ca         1 4UA      -0.103500
      6 C3          -8.6180    -1.0070    -0.0560 ca         1 4UA      -0.115500
      7 C7          -7.9820     0.9680    -1.3220 ca         1 4UA      -0.115500
      8 C4          -7.6140    -0.7260     0.8870 ca         1 4UA      -0.093000
      9 C6          -6.9770     1.2490    -0.3790 ca         1 4UA      -0.093000
     10 C26          5.5560     4.2070    -0.1100 ca         1 4UA      -0.022000
     11 C27          4.4640     4.0430    -0.9770 ca         1 4UA      -0.216000
     12 C24          5.3210     1.9020     0.6190 ca         1 4UA       0.022000
     13 C32          1.4130    -2.6600    -0.1640 ca         1 4UA      -0.077300
     14 C2          -8.8060    -0.1620    -1.1660 ca         1 4UA      -0.067300
     15 C5          -6.7890     0.4040     0.7310 ca         1 4UA      -0.116300
     16 C25          5.9890     3.1380     0.6920 ca         1 4UA      -0.133300
     17 C28          3.7920     2.8040    -1.0550 ca         1 4UA       0.225100
     18 C23          4.2260     1.7320    -0.2550 ca         1 4UA      -0.329500
     19 C10         -3.2740     0.1700     2.0720 c          1 4UA       0.648100
     20 C14          0.2730    -1.3050     1.7490 c6         1 4UA      -0.080400
     21 C16         -1.0290    -2.0600    -0.2040 c6         1 4UA      -0.080400
     22 C13         -0.8150    -0.2780     2.1340 c6         1 4UA       0.101000
     23 C17         -2.2030    -1.1180     0.1700 c6         1 4UA       0.101000
     24 C15          0.3830    -1.5470     0.2130 c6         1 4UA      -0.004700
     25 C18          0.7270    -0.2000    -0.5490 c3         1 4UA       0.256800
     26 N12         -2.1620    -0.5140     1.5380 n          1 4UA      -0.418800
     27 N9          -4.4430     0.0690     1.3630 ns         1 4UA      -0.511900
     28 N19          1.8510     0.5930    -0.0030 n7         1 4UA      -0.936300
     29 O11         -3.2100     0.8170     3.1070 o          1 4UA      -0.638100
     30 O29          2.6940     2.6270    -1.8740 os         1 4UA      -0.349100
     31 S20          3.4170     0.1350    -0.3410 sy         1 4UA       1.208600
     32 H35          3.9350    -5.4850    -1.2170 ha         1 4UA       0.112000
     33 H34          2.5870    -4.3050    -2.9470 ha         1 4UA       0.112500
     34 H36          3.6750    -4.8730     1.1830 ha         1 4UA       0.112500
     35 H33          0.9990    -2.5380    -2.3010 ha         1 4UA       0.108500
     36 H37          2.1120    -3.1160     1.8620 ha         1 4UA       0.108500
     37 H3          -9.2490    -1.8820     0.0770 ha         1 4UA       0.112500
     38 H4          -7.4760    -1.3900     1.7390 ha         1 4UA       0.116500
     39 H7          -8.1180     1.6300    -2.1740 ha         1 4UA       0.112500
     40 H6          -6.3450     2.1240    -0.5130 ha         1 4UA       0.116500
     41 H26          6.0630     5.1690    -0.0580 ha         1 4UA       0.113000
     42 H27          4.1520     4.8940    -1.5750 ha         1 4UA       0.119000
     43 H24          5.6630     1.0770     1.2430 ha         1 4UA       0.144000
     44 H11C       -10.8380     0.0180    -1.9030 hc         1 4UA       0.043033
     45 H12C        -9.6190    -0.1040    -3.1840 hc         1 4UA       0.043033
     46 H13C       -10.0800    -1.5430    -2.2650 hc         1 4UA       0.043033
     47 H81C        -5.5440     1.7890     1.8200 h1         1 4UA       0.057700
     48 H82C        -5.9980     0.3360     2.7380 h1         1 4UA       0.057700
     49 H311         6.8260     3.5820     2.6440 hc         1 4UA       0.043700
     50 H312         7.7590     2.3940     1.7170 hc         1 4UA       0.043700
     51 H313         7.8450     4.1070     1.2930 hc         1 4UA       0.043700
     52 H9          -4.4260    -0.4850     0.5200 hn         1 4UA       0.304500
     53 H141         1.2350    -0.9710     2.1590 hc         1 4UA       0.057200
     54 H142         0.0340    -2.2490     2.2570 hc         1 4UA       0.057200
     55 H131        -0.9010    -0.2720     3.2300 h1         1 4UA       0.043200
     56 H132        -0.4810     0.7280     1.8410 h1         1 4UA       0.043200
     57 H161        -1.2060    -3.0340     0.2740 hc         1 4UA       0.057200
     58 H162        -1.0720    -2.2520    -1.2840 hc         1 4UA       0.057200
     59 H171        -2.2490    -0.2980    -0.5620 h1         1 4UA       0.043200
     60 H172        -3.1310    -1.6950     0.0530 h1         1 4UA       0.043200
     61 H181         0.8680    -0.4070    -1.6180 h1         1 4UA       0.054700
     62 H182        -0.1640     0.4380    -0.4990 h1         1 4UA       0.054700
     63 H301         1.8960     4.5420    -2.1850 h1         1 4UA       0.046700
     64 H302         2.9860     3.9550    -3.4710 h1         1 4UA       0.046700
     65 H303         1.3440     3.2950    -3.3220 h1         1 4UA       0.046700
     66 H19          1.8670     1.4940    -0.4820 hn         1 4UA       0.493000
     67 C31          7.1690     3.3150     1.6370 c3         1 4UA      -0.041800
     68 O21          3.4210    -0.3240    -1.7320 o          1 4UA      -0.539500
     69 C8          -5.6990     0.7040     1.7470 c3         1 4UA       0.153300
     70 O22          3.8760    -0.6960     0.7740 o          1 4UA      -0.539500
     71 C1          -9.8940    -0.4650    -2.1850 c3         1 4UA      -0.048800
     72 C30          2.2100     3.6570    -2.7540 c3         1 4UA       0.153900
@<TRIPOS>BOND
     1     1     2 ar  
     2     1     3 ar  
     3     1    32 1   
     4     2     4 ar  
     5     2    33 1   
     6     3     5 ar  
     7     3    34 1   
     8     4    13 ar  
     9     4    35 1   
    10     5    13 ar  
    11     5    36 1   
    12     6     8 ar  
    13     6    14 ar  
    14     6    37 1   
    15     7     9 ar  
    16     7    14 ar  
    17     7    39 1   
    18     8    15 ar  
    19     8    38 1   
    20     9    15 ar  
    21     9    40 1   
    22    10    11 ar  
    23    10    16 ar  
    24    10    41 1   
    25    11    17 ar  
    26    11    42 1   
    27    12    16 ar  
    28    12    18 ar  
    29    12    43 1   
    30    13    24 1   
    31    14    71 1   
    32    15    69 1   
    33    16    67 1   
    34    17    18 ar  
    35    17    30 1   
    36    18    31 1   
    37    19    26 1   
    38    19    27 1   
    39    19    29 2   
    40    20    22 1   
    41    20    24 1   
    42    20    53 1   
    43    20    54 1   
    44    21    23 1   
    45    21    24 1   
    46    21    57 1   
    47    21    58 1   
    48    22    26 1   
    49    22    55 1   
    50    22    56 1   
    51    23    26 1   
    52    23    59 1   
    53    23    60 1   
    54    24    25 1   
    55    25    28 1   
    56    25    61 1   
    57    25    62 1   
    58    27    52 1   
    59    27    69 1   
    60    28    31 1   
    61    28    66 1   
    62    30    72 1   
    63    31    68 2   
    64    31    70 2   
    65    44    71 1   
    66    45    71 1   
    67    46    71 1   
    68    47    69 1   
    69    48    69 1   
    70    49    67 1   
    71    50    67 1   
    72    51    67 1   
    73    63    72 1   
    74    64    72 1   
    75    65    72 1   
@<TRIPOS>SUBSTRUCTURE
     1 4UA         1 TEMP              0 ****  ****    0 ROOT
