@<TRIPOS>MOLECULE
4UB
   31    34     1     0     0
SMALL
No Charge or Current Charge


@<TRIPOS>ATOM
      1 C1          -3.7580    -0.3030    -0.7000 ca         1 4UB      -0.099000
      2 C2          -4.5700    -1.4510    -0.7030 ca         1 4UB      -0.108000
      3 C3          -4.2070    -2.5710     0.0630 ca         1 4UB      -0.103000
      4 C4          -3.0340    -2.5390     0.8350 ca         1 4UB      -0.108000
      5 C5          -2.2230    -1.3910     0.8370 ca         1 4UB      -0.099000
      6 C8           2.8050    -1.8320    -0.2960 cc         1 4UB       0.254900
      7 N9           3.9610    -2.4600    -0.3780 nd         1 4UB      -0.519800
      8 N10          4.8860    -1.4170    -0.2730 na         1 4UB      -0.003200
      9 C12          4.2710    -0.1660    -0.1270 cd         1 4UB      -0.114000
     10 C13          2.9340    -0.4430    -0.1440 cc         1 4UB      -0.273500
     11 C14          1.8790     0.5280    -0.0240 cc         1 4UB       0.412500
     12 C15          0.5690     0.0790    -0.0640 cd         1 4UB      -0.162000
     13 C17         -0.1150     2.4240     0.1760 cc         1 4UB      -0.155000
     14 N18         -1.2280     3.1390     0.2300 nd         1 4UB      -0.263600
     15 C19         -2.2570     2.2110     0.1620 cd         1 4UB      -0.023400
     16 C20         -1.7390     0.9370     0.0630 cc         1 4UB      -0.121300
     17 CAO         -2.5730    -0.2660     0.0620 ca         1 4UB      -0.021800
     18 NAT         -0.3730     1.0850     0.0800 na         1 4UB       0.166100
     19 C22          1.2310     2.7310     0.2010 cd         1 4UB       0.407900
     20 N23          2.2360     1.8580     0.1180 nc         1 4UB      -0.669000
     21 H1          -4.0470     0.5560    -1.3020 ha         1 4UB       0.117500
     22 H2          -5.4790    -1.4720    -1.3000 ha         1 4UB       0.116500
     23 H3          -4.8360    -3.4590     0.0620 ha         1 4UB       0.116000
     24 H4          -2.7570    -3.4020     1.4370 ha         1 4UB       0.116500
     25 H5          -1.3310    -1.3730     1.4590 ha         1 4UB       0.117500
     26 H10          5.8910    -1.5910    -0.3030 hn         1 4UB       0.375000
     27 H12          4.8170     0.7670    -0.0300 h4         1 4UB       0.171000
     28 H15          0.2370    -0.9390    -0.1980 h4         1 4UB       0.159000
     29 H22          1.5710     3.7550     0.2900 h4         1 4UB       0.047100
     30 H19         -3.3010     2.5090     0.2070 h4         1 4UB       0.231000
     31 H8           1.8960    -2.4160    -0.3500 h4         1 4UB       0.037100
@<TRIPOS>BOND
     1     1     2 ar  
     2     1    17 ar  
     3     1    21 1   
     4     2     3 ar  
     5     2    22 1   
     6     3     4 ar  
     7     3    23 1   
     8     4     5 ar  
     9     4    24 1   
    10     5    17 ar  
    11     5    25 1   
    12     6     7 2   
    13     6    10 1   
    14     6    31 1   
    15     7     8 1   
    16     8     9 1   
    17     8    26 1   
    18     9    10 2   
    19     9    27 1   
    20    10    11 1   
    21    11    12 2   
    22    11    20 1   
    23    12    18 1   
    24    12    28 1   
    25    13    14 2   
    26    13    18 1   
    27    13    19 1   
    28    14    15 1   
    29    15    16 2   
    30    15    30 1   
    31    16    17 1   
    32    16    18 1   
    33    19    20 2   
    34    19    29 1   
@<TRIPOS>SUBSTRUCTURE
     1 4UB         1 TEMP              0 ****  ****    0 ROOT
