@<TRIPOS>MOLECULE
4UB
   31    34     1     0     0
SMALL
bcc


@<TRIPOS>ATOM
      1 C1          -3.7440    -0.3170    -0.7060 ca         1 4UB      -0.117000
      2 C2          -4.5270    -1.4610    -0.7330 ca         1 4UB      -0.126000
      3 C3          -4.1740    -2.5680     0.0280 ca         1 4UB      -0.121000
      4 C4          -3.0400    -2.5180     0.8290 ca         1 4UB      -0.126000
      5 C5          -2.2630    -1.3700     0.8690 ca         1 4UB      -0.117000
      6 C8           2.8530    -1.8830    -0.3040 cc         1 4UB       0.320200
      7 N9           4.0600    -2.4040    -0.3810 nd         1 4UB      -0.519800
      8 N10          4.8870    -1.3690    -0.2860 na         1 4UB      -0.003600
      9 C12          4.2560    -0.1960    -0.1520 cd         1 4UB      -0.081300
     10 C13          2.9040    -0.4790    -0.1570 cc         1 4UB      -0.338800
     11 C14          1.8190     0.4830    -0.0320 cc         1 4UB       0.477800
     12 C15          0.5150     0.0880    -0.0150 cd         1 4UB      -0.194600
     13 C17         -0.1160     2.3800     0.1760 cc         1 4UB      -0.169600
     14 N18         -1.1900     3.1460     0.2420 nd         1 4UB      -0.263600
     15 C19         -2.2280     2.2920     0.2120 cd         1 4UB       0.026600
     16 C20         -1.8190     0.9720     0.1320 cc         1 4UB      -0.121300
     17 CAO         -2.6020    -0.2580     0.0940 ca         1 4UB      -0.021800
     18 NAT         -0.4540     1.0430     0.1080 na         1 4UB       0.064700
     19 C22          1.2560     2.7000     0.1610 cd         1 4UB       0.473200
     20 N23          2.1830     1.7960     0.0670 nc         1 4UB      -0.669000
     21 H1          -4.0130     0.5340    -1.3200 ha         1 4UB       0.135500
     22 H2          -5.4090    -1.4910    -1.3590 ha         1 4UB       0.134500
     23 H3          -4.7790    -3.4640    -0.0020 ha         1 4UB       0.134000
     24 H4          -2.7640    -3.3700     1.4350 ha         1 4UB       0.134500
     25 H5          -1.4050    -1.3340     1.5290 ha         1 4UB       0.135500
     26 H10          5.8830    -1.5190    -0.3180 hn         1 4UB       0.324700
     27 H12          4.7900     0.7350    -0.0620 h4         1 4UB       0.189000
     28 H15          0.1940    -0.9380    -0.1040 h4         1 4UB       0.177000
     29 H22          1.5500     3.7420     0.2280 h4         1 4UB       0.047100
     30 H19         -3.2510     2.6360     0.2660 h4         1 4UB       0.181000
     31 H8           1.9850    -2.5230    -0.3580 h4         1 4UB       0.037100
@<TRIPOS>BOND
     1     1     2 ar  
     2     1    17 ar  
     3     1    21 1   
     4     2     3 ar  
     5     2    22 1   
     6     3     4 ar  
     7     3    23 1   
     8     4     5 ar  
     9     4    24 1   
    10     5    17 ar  
    11     5    25 1   
    12     6     7 2   
    13     6    10 1   
    14     6    31 1   
    15     7     8 1   
    16     8     9 1   
    17     8    26 1   
    18     9    10 2   
    19     9    27 1   
    20    10    11 1   
    21    11    12 2   
    22    11    20 1   
    23    12    18 1   
    24    12    28 1   
    25    13    14 2   
    26    13    18 1   
    27    13    19 1   
    28    14    15 1   
    29    15    16 2   
    30    15    30 1   
    31    16    17 1   
    32    16    18 1   
    33    19    20 2   
    34    19    29 1   
@<TRIPOS>SUBSTRUCTURE
     1 4UB         1 TEMP              0 ****  ****    0 ROOT
