@<TRIPOS>MOLECULE
4UC
   58    61     1     0     0
SMALL
bcc


@<TRIPOS>ATOM
      1 C6          -4.4600    -1.4110     0.3340 ca         1 4UC      -0.328500
      2 C7          -4.1320    -0.2890     1.0810 ca         1 4UC       0.011000
      3 C8          -2.8840     0.2930     0.9530 ca         1 4UC      -0.197000
      4 C13          1.7900     2.7630    -0.5870 ca         1 4UC      -0.119300
      5 C15          1.4970     4.9900    -1.4720 ca         1 4UC      -0.121000
      6 C17          3.7050     4.0290    -1.4250 ca         1 4UC      -0.167300
      7 C20          3.5970     0.7110    -0.0960 cp         1 4UC       0.505800
      8 C21          4.5840    -0.3570     0.1520 cp         1 4UC      -0.202500
      9 C22          4.2140    -1.6490     0.5180 ca         1 4UC      -0.057000
     10 C24          6.5100    -2.3650     0.5930 ca         1 4UC       0.168100
     11 C26          7.1650    -4.5810     1.1730 c3         1 4UC       0.141400
     12 C28          6.8980    -1.0720     0.2260 ca         1 4UC      -0.204000
     13 C27          8.4490    -5.3600     1.3190 c3         1 4UC      -0.095100
     14 O25          7.4950    -3.2530     0.7810 os         1 4UC      -0.321900
     15 C29          5.9530    -0.0940     0.0080 ca         1 4UC      -0.057000
     16 C23          5.1530    -2.6460     0.7380 ca         1 4UC      -0.204000
     17 C30          2.2210     0.5320     0.2100 ca         1 4UC      -0.218300
     18 N19          4.0370     1.8330    -0.6050 nb         1 4UC      -0.665000
     19 C18          3.1800     2.8450    -0.8580 ca         1 4UC       0.409600
     20 C16          2.8800     5.0780    -1.7240 ca         1 4UC      -0.115000
     21 C14          0.9610     3.8600    -0.9130 ca         1 4UC      -0.103000
     22 C12          1.3330     1.5410    -0.0270 ca         1 4UC      -0.105600
     23 C11         -0.0990     1.3650     0.3790 c          1 4UC       0.687700
     24 O31         -0.6610     2.1640     1.0990 o          1 4UC      -0.552100
     25 C9          -1.9510    -0.2610     0.0720 ca         1 4UC       0.132600
     26 C32         -2.2950    -1.3970    -0.6680 ca         1 4UC      -0.197000
     27 C33         -3.5420    -1.9710    -0.5440 ca         1 4UC       0.011000
     28 S3          -6.0510    -2.1320     0.5270 sy         1 4UC       1.328900
     29 O4          -6.0560    -3.4410    -0.0920 o          1 4UC      -0.601800
     30 O5          -6.4840    -1.9830     1.9050 o          1 4UC      -0.601800
     31 N2          -7.0780    -1.1120    -0.3230 ns         1 4UC      -0.656300
     32 C1          -6.9870    -0.8990    -1.6780 c          1 4UC       0.703100
     33 O34         -6.1320    -1.4360    -2.3450 o          1 4UC      -0.558100
     34 C35         -8.0330     0.0210    -2.2370 c3         1 4UC      -0.181100
     35 H1          -4.8400     0.1490     1.7720 ha         1 4UC       0.158000
     36 H2          -2.6540     1.1650     1.5410 ha         1 4UC       0.153500
     37 H3           0.8530     5.8220    -1.7220 ha         1 4UC       0.137000
     38 H4           4.7680     4.0760    -1.6200 ha         1 4UC       0.151000
     39 H5           3.1730    -1.9180     0.6350 ha         1 4UC       0.139500
     40 H6           6.5180    -5.0450     0.4220 h1         1 4UC       0.035200
     41 H7           6.6150    -4.5660     2.1200 h1         1 4UC       0.035200
     42 H8           7.9510    -0.8450     0.1120 ha         1 4UC       0.143000
     43 H9           8.9990    -5.4020     0.3790 hc         1 4UC       0.049033
     44 H10          9.0950    -4.9260     2.0820 hc         1 4UC       0.049033
     45 H11          8.2180    -6.3820     1.6180 hc         1 4UC       0.049033
     46 H12          6.2750     0.8970    -0.2780 ha         1 4UC       0.139500
     47 H13          4.8050    -3.6300     1.0160 ha         1 4UC       0.143000
     48 H14          1.8790    -0.3880     0.6640 ha         1 4UC       0.145000
     49 H15          3.2870     5.9800    -2.1610 ha         1 4UC       0.137000
     50 H16         -0.1030     3.8140    -0.7270 ha         1 4UC       0.148000
     51 H17         -0.1010    -0.2900    -0.7730 hn         1 4UC       0.328500
     52 H18         -1.5790    -1.8350    -1.3510 ha         1 4UC       0.153500
     53 H19         -3.7840    -2.8490    -1.1260 ha         1 4UC       0.158000
     54 H20         -7.7680    -0.6240     0.2350 hn         1 4UC       0.346500
     55 H21         -8.5350     0.6190    -1.4790 hc         1 4UC       0.067700
     56 H22         -7.5800     0.6820    -2.9730 hc         1 4UC       0.067700
     57 H23         -8.7870    -0.5790    -2.7480 hc         1 4UC       0.067700
     58 N10         -0.6670     0.2380    -0.1250 ns         1 4UC      -0.471100
@<TRIPOS>BOND
     1     1     2 ar  
     2     1    27 ar  
     3     1    28 1   
     4     2     3 ar  
     5     2    35 1   
     6     3    25 ar  
     7     3    36 1   
     8     4    19 ar  
     9     4    21 ar  
    10     4    22 ar  
    11     5    20 ar  
    12     5    21 ar  
    13     5    37 1   
    14     6    19 ar  
    15     6    20 ar  
    16     6    38 1   
    17     7     8 1   
    18     7    17 ar  
    19     7    18 ar  
    20     8     9 ar  
    21     8    15 ar  
    22     9    16 ar  
    23     9    39 1   
    24    10    12 ar  
    25    10    14 1   
    26    10    16 ar  
    27    11    13 1   
    28    11    14 1   
    29    11    40 1   
    30    11    41 1   
    31    12    15 ar  
    32    12    42 1   
    33    13    43 1   
    34    13    44 1   
    35    13    45 1   
    36    15    46 1   
    37    16    47 1   
    38    17    22 ar  
    39    17    48 1   
    40    18    19 ar  
    41    20    49 1   
    42    21    50 1   
    43    22    23 1   
    44    23    24 2   
    45    23    58 1   
    46    25    26 ar  
    47    25    58 1   
    48    26    27 ar  
    49    26    52 1   
    50    27    53 1   
    51    28    29 2   
    52    28    30 2   
    53    28    31 1   
    54    31    32 1   
    55    31    54 1   
    56    32    33 2   
    57    32    34 1   
    58    34    55 1   
    59    34    56 1   
    60    34    57 1   
    61    51    58 1   
@<TRIPOS>SUBSTRUCTURE
     1 4UC         1 TEMP              0 ****  ****    0 ROOT
