@<TRIPOS>MOLECULE
4UC
   58    61     1     0     0
SMALL
No Charge or Current Charge


@<TRIPOS>ATOM
      1 C6          -4.5450    -0.9790     0.7660 ca         1 4UC      -0.328500
      2 C7          -4.3630     0.4100     0.9060 ca         1 4UC       0.029000
      3 C8          -3.0900     0.9760     0.7170 ca         1 4UC      -0.179000
      4 C13          2.0020     3.1920    -0.4550 ca         1 4UC      -0.054000
      5 C15          1.9390     5.5320    -1.1950 ca         1 4UC      -0.103000
      6 C17          4.0440     4.3350    -1.1650 ca         1 4UC      -0.084000
      7 C20          3.5810     0.9210    -0.0890 cp         1 4UC       0.440500
      8 C21          4.4890    -0.2650     0.0900 cp         1 4UC      -0.202500
      9 C22          3.9940    -1.5950     0.0100 ca         1 4UC      -0.039000
     10 C24          6.2170    -2.5110     0.4290 ca         1 4UC       0.168100
     11 C26          6.6750    -4.9310     0.5430 c3         1 4UC       0.164600
     12 C28          6.7260    -1.2070     0.5060 ca         1 4UC      -0.186000
     13 C27          7.9140    -5.8090     0.7820 c3         1 4UC      -0.095100
     14 O25          7.0980    -3.5590     0.6030 os         1 4UC      -0.345100
     15 C29          5.8790    -0.0990     0.3370 ca         1 4UC      -0.039000
     16 C23          4.8440    -2.7030     0.1780 ca         1 4UC      -0.186000
     17 C30          2.1970     0.8680     0.1940 ca         1 4UC      -0.135000
     18 N19          4.1560     2.0640    -0.5100 nb         1 4UC      -0.665000
     19 C18          3.4060     3.1700    -0.7000 ca         1 4UC       0.279000
     20 C16          3.3220     5.5120    -1.4080 ca         1 4UC      -0.097000
     21 C14          1.2810     4.3830    -0.7270 ca         1 4UC      -0.085000
     22 C12          1.3720     2.0060     0.0260 ca         1 4UC      -0.105600
     23 C11         -0.1020     1.9140     0.3940 c          1 4UC       0.620700
     24 O31         -0.7060     2.8420     0.9190 o          1 4UC      -0.552100
     25 C9          -1.9840     0.1630     0.3880 ca         1 4UC       0.040000
     26 C32         -2.1810    -1.2220     0.2390 ca         1 4UC      -0.179000
     27 C33         -3.4500    -1.7960     0.4270 ca         1 4UC       0.029000
     28 S3          -6.1780    -1.6990     1.0020 sy         1 4UC       1.187300
     29 O4          -6.0300    -3.1390     1.2410 o          1 4UC      -0.531000
     30 O5          -6.9450    -0.8450     1.9130 o          1 4UC      -0.531000
     31 N2          -6.9340    -1.5390    -0.4800 ns         1 4UC      -0.589300
     32 C1          -6.5800    -2.1090    -1.6590 c          1 4UC       0.636100
     33 O34         -5.6230    -2.8550    -1.7860 o          1 4UC      -0.558100
     34 C35         -7.4770    -1.7380    -2.8310 c3         1 4UC      -0.181100
     35 H1          -5.2020     1.0580     1.1580 ha         1 4UC       0.140000
     36 H2          -2.9910     2.0510     0.8210 ha         1 4UC       0.135500
     37 H3           1.3710     6.4380    -1.3960 ha         1 4UC       0.119000
     38 H4           5.1160     4.3200    -1.3450 ha         1 4UC       0.133000
     39 H5           2.9440    -1.7800    -0.2020 ha         1 4UC       0.121500
     40 H6           6.2470    -5.1650    -0.4410 h1         1 4UC       0.035200
     41 H7           5.9240    -5.1420     1.3150 h1         1 4UC       0.035200
     42 H8           7.7840    -1.0540     0.6980 ha         1 4UC       0.125000
     43 H9           8.6730    -5.6230     0.0130 hc         1 4UC       0.049033
     44 H10          8.3510    -5.6010     1.7650 hc         1 4UC       0.049033
     45 H11          7.6400    -6.8700     0.7450 hc         1 4UC       0.049033
     46 H12          6.3070     0.8990     0.4090 ha         1 4UC       0.121500
     47 H13          4.4180    -3.6990     0.1050 ha         1 4UC       0.125000
     48 H14          1.7850    -0.0530     0.5930 ha         1 4UC       0.127000
     49 H15          3.8320     6.4020    -1.7710 ha         1 4UC       0.119000
     50 H16          0.2060     4.4430    -0.6010 ha         1 4UC       0.130000
     51 H17         -0.0410    -0.0090    -0.2340 hn         1 4UC       0.162000
     52 H18         -1.3440    -1.8650    -0.0230 ha         1 4UC       0.135500
     53 H19         -3.5730    -2.8710     0.3030 ha         1 4UC       0.140000
     54 H20         -7.7210    -0.9140    -0.4360 hn         1 4UC       0.346500
     55 H21         -7.5100    -0.6460    -2.9230 hc         1 4UC       0.067700
     56 H22         -7.1650    -2.2130    -3.7670 hc         1 4UC       0.067700
     57 H23         -8.5150    -1.9830    -2.5780 hc         1 4UC       0.067700
     58 N10         -0.6730     0.6670     0.1750 ns         1 4UC      -0.145000
@<TRIPOS>BOND
     1     1     2 ar  
     2     1    27 ar  
     3     1    28 1   
     4     2     3 ar  
     5     2    35 1   
     6     3    25 ar  
     7     3    36 1   
     8     4    19 ar  
     9     4    21 ar  
    10     4    22 ar  
    11     5    20 ar  
    12     5    21 ar  
    13     5    37 1   
    14     6    19 ar  
    15     6    20 ar  
    16     6    38 1   
    17     7     8 1   
    18     7    17 ar  
    19     7    18 ar  
    20     8     9 ar  
    21     8    15 ar  
    22     9    16 ar  
    23     9    39 1   
    24    10    12 ar  
    25    10    14 1   
    26    10    16 ar  
    27    11    13 1   
    28    11    14 1   
    29    11    40 1   
    30    11    41 1   
    31    12    15 ar  
    32    12    42 1   
    33    13    43 1   
    34    13    44 1   
    35    13    45 1   
    36    15    46 1   
    37    16    47 1   
    38    17    22 ar  
    39    17    48 1   
    40    18    19 ar  
    41    20    49 1   
    42    21    50 1   
    43    22    23 1   
    44    23    24 2   
    45    23    58 1   
    46    25    26 ar  
    47    25    58 1   
    48    26    27 ar  
    49    26    52 1   
    50    27    53 1   
    51    28    29 2   
    52    28    30 2   
    53    28    31 1   
    54    31    32 1   
    55    31    54 1   
    56    32    33 2   
    57    32    34 1   
    58    34    55 1   
    59    34    56 1   
    60    34    57 1   
    61    51    58 1   
@<TRIPOS>SUBSTRUCTURE
     1 4UC         1 TEMP              0 ****  ****    0 ROOT
