@<TRIPOS>MOLECULE
4UD
   17    17     1     0     0
SMALL
No Charge or Current Charge


@<TRIPOS>ATOM
      1 C3          -2.8900     0.0560     0.0210 c2         1 4UD       0.272200
      2 C4          -0.6060     0.3270    -0.3820 c5         1 4UD       0.149300
      3 C5          -1.8530     1.1310     0.0750 c5         1 4UD      -0.168700
      4 C6           0.7010     0.5750     0.4310 c3         1 4UD       0.001500
      5 C8           1.8130    -0.4530    -0.0160 c          1 4UD       0.702000
      6 O9           2.2820    -1.2030     0.8300 o          1 4UD      -0.725000
      7 O10          2.2630    -0.3640    -1.1520 o          1 4UD      -0.725000
      8 N7           1.1060     2.0390     0.4030 n8         1 4UD      -1.015200
      9 O2          -1.0220    -1.0640    -0.2580 os         1 4UD      -0.264000
     10 N1          -2.4300    -1.1300    -0.1140 n2         1 4UD      -0.273700
     11 H1          -3.9550     0.2430     0.1340 h4         1 4UD       0.018800
     12 H3          -0.4060     0.5170    -1.4460 h1         1 4UD       0.085700
     13 H4          -2.0850     1.9640    -0.5980 hc         1 4UD       0.060200
     14 H5          -1.7540     1.5270     1.0920 hc         1 4UD       0.060200
     15 H6           0.4660     0.3370     1.4770 h1         1 4UD       0.046700
     16 H8           1.9290     2.1710     1.0050 hn         1 4UD       0.388500
     17 H9           1.4680     2.2620    -0.5340 hn         1 4UD       0.388500
@<TRIPOS>BOND
     1     1     3 1   
     2     1    10 2   
     3     1    11 1   
     4     2     3 1   
     5     2     4 1   
     6     2     9 1   
     7     2    12 1   
     8     3    13 1   
     9     3    14 1   
    10     4     5 1   
    11     4     8 1   
    12     4    15 1   
    13     5     6 1   
    14     5     7 1   
    15     8    16 1   
    16     8    17 1   
    17     9    10 1   
@<TRIPOS>SUBSTRUCTURE
     1 4UD         1 TEMP              0 ****  ****    0 ROOT
