@<TRIPOS>MOLECULE
4UD
   17    17     1     0     0
SMALL
abcg2


@<TRIPOS>ATOM
      1 C3          -2.6530     0.0230     0.3080 c2         1 4UD       0.272200
      2 C4          -0.5650     0.4390    -0.5740 c5         1 4UD       0.149300
      3 C5          -1.8180     1.1820    -0.1200 c5         1 4UD      -0.168700
      4 C6           0.5830     0.5390     0.4260 c3         1 4UD       0.001500
      5 C8           1.7080    -0.4520     0.0540 c          1 4UD       0.702000
      6 O9           1.9990    -1.3390     0.8780 o          1 4UD      -0.725000
      7 O10          2.2490    -0.2560    -1.0560 o          1 4UD      -0.725000
      8 N7           1.0220     1.9300     0.4440 n8         1 4UD      -1.015200
      9 O2          -0.9900    -0.9380    -0.6800 os         1 4UD      -0.264000
     10 N1          -2.1800    -1.1070    -0.0150 n2         1 4UD      -0.273700
     11 H1          -3.5980     0.0730     0.8320 h4         1 4UD       0.018800
     12 H3          -0.2220     0.7500    -1.5630 h1         1 4UD       0.085700
     13 H4          -2.3160     1.7390    -0.9190 hc         1 4UD       0.060200
     14 H5          -1.6180     1.8870     0.6880 hc         1 4UD       0.060200
     15 H6           0.1950     0.2980     1.4220 h1         1 4UD       0.046700
     16 H8           1.6470     2.0740     1.2270 hn         1 4UD       0.388500
     17 H9           1.5840     2.0930    -0.3850 hn         1 4UD       0.388500
@<TRIPOS>BOND
     1     1     3 1   
     2     1    10 2   
     3     1    11 1   
     4     2     3 1   
     5     2     4 1   
     6     2     9 1   
     7     2    12 1   
     8     3    13 1   
     9     3    14 1   
    10     4     5 1   
    11     4     8 1   
    12     4    15 1   
    13     5     6 1   
    14     5     7 1   
    15     8    16 1   
    16     8    17 1   
    17     9    10 1   
@<TRIPOS>SUBSTRUCTURE
     1 4UD         1 TEMP              0 ****  ****    0 ROOT
