@<TRIPOS>MOLECULE
4UE
   35    37     1     0     0
SMALL
No Charge or Current Charge


@<TRIPOS>ATOM
      1 C1          -2.1950     0.4430    -0.0260 ca         1 4UE      -0.042000
      2 C2          -1.6920     1.7750     0.0350 ca         1 4UE      -0.062000
      3 C3          -0.3060     2.0410     0.0640 ca         1 4UE      -0.132000
      4 C5           0.1110    -0.3200    -0.0440 ca         1 4UE      -0.125800
      5 N7           1.9610     0.9850     0.0370 na         1 4UE      -0.192700
      6 C9           1.2520    -1.1850    -0.0860 cc         1 4UE      -0.151200
      7 C14          6.9370     1.0350     0.0670 c3         1 4UE      -0.099100
      8 C15         -4.6260     1.2020    -0.1940 cc         1 4UE       0.241900
      9 C16         -3.6680     0.2240    -0.0580 cd         1 4UE      -0.154000
     10 C18         -5.7530    -0.6060     0.0270 cd         1 4UE       0.390400
     11 O11          4.0610    -2.0680    -0.1190 o          1 4UE      -0.476000
     12 O12          4.7210     0.1190     0.0050 os         1 4UE      -0.463100
     13 C13          6.1090    -0.2580    -0.0080 c3         1 4UE       0.171600
     14 C8           2.3810    -0.3700    -0.0350 cd         1 4UE      -0.137300
     15 C6           0.5760     0.9590     0.0260 ca         1 4UE      -0.028200
     16 C4          -1.2560    -0.6230    -0.0750 ca         1 4UE      -0.041000
     17 N17         -4.4110    -0.9490     0.1190 na         1 4UE      -0.159500
     18 N19         -5.8930     0.6970    -0.1570 nc         1 4UE      -0.670000
     19 H1          -2.3720     2.6210     0.0730 ha         1 4UE       0.121000
     20 H2           0.0630     3.0630     0.1160 ha         1 4UE       0.120000
     21 H3           2.5610     1.8030     0.0840 hn         1 4UE       0.366000
     22 H4           1.2560    -2.2720    -0.1460 ha         1 4UE       0.221000
     23 H5           8.0080     0.7990     0.0600 hc         1 4UE       0.048367
     24 H6           6.7210     1.6820    -0.7910 hc         1 4UE       0.048367
     25 H7           6.7120     1.5850     0.9890 hc         1 4UE       0.048367
     26 H8          -4.4890     2.2660    -0.3350 h4         1 4UE       0.038100
     27 H9          -6.5460    -1.3380     0.1240 h5         1 4UE       0.052100
     28 H10         -3.4790    -2.7560    -0.4540 h1         1 4UE       0.053700
     29 H11         -3.2070    -2.2640     1.2540 h1         1 4UE       0.053700
     30 H12         -4.7810    -2.9300     0.7520 h1         1 4UE       0.053700
     31 H13          6.3600    -0.8000    -0.9300 h1         1 4UE       0.052200
     32 H14          6.3500    -0.8980     0.8510 h1         1 4UE       0.052200
     33 H15         -1.5540    -1.6590    -0.1640 ha         1 4UE       0.117000
     34 C10          3.7800    -0.8780    -0.0550 c          1 4UE       0.629300
     35 C20         -3.9360    -2.3050     0.4360 c3         1 4UE       0.057900
@<TRIPOS>BOND
     1     1     2 ar  
     2     1     9 1   
     3     1    16 ar  
     4     2     3 ar  
     5     2    19 1   
     6     3    15 ar  
     7     3    20 1   
     8     4     6 1   
     9     4    15 ar  
    10     4    16 ar  
    11     5    14 1   
    12     5    15 1   
    13     5    21 1   
    14     6    14 2   
    15     6    22 1   
    16     7    13 1   
    17     7    23 1   
    18     7    24 1   
    19     7    25 1   
    20     8     9 2   
    21     8    18 1   
    22     8    26 1   
    23     9    17 1   
    24    10    17 1   
    25    10    18 2   
    26    10    27 1   
    27    11    34 2   
    28    12    13 1   
    29    12    34 1   
    30    13    31 1   
    31    13    32 1   
    32    14    34 1   
    33    16    33 1   
    34    17    35 1   
    35    28    35 1   
    36    29    35 1   
    37    30    35 1   
@<TRIPOS>SUBSTRUCTURE
     1 4UE         1 TEMP              0 ****  ****    0 ROOT
