@<TRIPOS>MOLECULE
4UE
   35    37     1     0     0
SMALL
bcc


@<TRIPOS>ATOM
      1 C1          -2.1350     0.3870    -0.0780 ca         1 4UE      -0.042000
      2 C2          -1.6130     1.6490     0.3030 ca         1 4UE      -0.080000
      3 C3          -0.2620     1.8880     0.3990 ca         1 4UE      -0.150000
      4 C5           0.1120    -0.4450    -0.2590 ca         1 4UE      -0.125800
      5 N7           1.9560     0.7630     0.1330 na         1 4UE      -0.142400
      6 C9           1.2470    -1.2740    -0.4740 cc         1 4UE      -0.101200
      7 C14          6.7050     1.1070     0.2600 c3         1 4UE      -0.099100
      8 C15         -4.5130     1.1070    -0.7260 cc         1 4UE       0.307200
      9 C16         -3.5860     0.2470    -0.1930 cd         1 4UE      -0.168600
     10 C18         -5.6120    -0.5690    -0.0370 cd         1 4UE       0.390400
     11 O11          4.0960    -2.0290    -0.6320 o          1 4UE      -0.525000
     12 O12          4.5790     0.0760    -0.0250 os         1 4UE      -0.439900
     13 C13          5.9930    -0.1760    -0.0920 c3         1 4UE       0.148400
     14 C8           2.3500    -0.5010    -0.2250 cd         1 4UE      -0.137300
     15 C6           0.6010     0.8260     0.1180 ca         1 4UE      -0.028200
     16 C4          -1.2680    -0.6530    -0.3640 ca         1 4UE      -0.059000
     17 N17         -4.3190    -0.8300     0.2470 na         1 4UE      -0.180900
     18 N19         -5.7680     0.5890    -0.6260 nc         1 4UE      -0.670000
     19 H1          -2.3050     2.4490     0.5340 ha         1 4UE       0.139000
     20 H2           0.1120     2.8600     0.6920 ha         1 4UE       0.138000
     21 H3           2.5740     1.5260     0.3580 hn         1 4UE       0.315700
     22 H4           1.2520    -2.3100    -0.7730 ha         1 4UE       0.171000
     23 H5           7.7810     0.9400     0.2110 hc         1 4UE       0.048367
     24 H6           6.4590     1.9060    -0.4390 hc         1 4UE       0.048367
     25 H7           6.4630     1.4380     1.2700 hc         1 4UE       0.048367
     26 H8          -4.3210     2.0640    -1.1900 h4         1 4UE       0.038100
     27 H9          -6.4000    -1.2620     0.2200 h5         1 4UE       0.052100
     28 H10         -3.3710    -2.7110     0.2630 h1         1 4UE       0.053700
     29 H11         -3.1350    -1.7290     1.7180 h1         1 4UE       0.053700
     30 H12         -4.6940    -2.4980     1.4120 h1         1 4UE       0.053700
     31 H13          6.2550    -0.5060    -1.0990 h1         1 4UE       0.052200
     32 H14          6.2540    -0.9750     0.6040 h1         1 4UE       0.052200
     33 H15         -1.6390    -1.6150    -0.6930 ha         1 4UE       0.135000
     34 C10          3.7520    -0.9130    -0.3190 c          1 4UE       0.678300
     35 C20         -3.8460    -2.0060     0.9430 c3         1 4UE       0.028600
@<TRIPOS>BOND
     1     1     2 ar  
     2     1     9 1   
     3     1    16 ar  
     4     2     3 ar  
     5     2    19 1   
     6     3    15 ar  
     7     3    20 1   
     8     4     6 1   
     9     4    15 ar  
    10     4    16 ar  
    11     5    14 1   
    12     5    15 1   
    13     5    21 1   
    14     6    14 2   
    15     6    22 1   
    16     7    13 1   
    17     7    23 1   
    18     7    24 1   
    19     7    25 1   
    20     8     9 2   
    21     8    18 1   
    22     8    26 1   
    23     9    17 1   
    24    10    17 1   
    25    10    18 2   
    26    10    27 1   
    27    11    34 2   
    28    12    13 1   
    29    12    34 1   
    30    13    31 1   
    31    13    32 1   
    32    14    34 1   
    33    16    33 1   
    34    17    35 1   
    35    28    35 1   
    36    29    35 1   
    37    30    35 1   
@<TRIPOS>SUBSTRUCTURE
     1 4UE         1 TEMP              0 ****  ****    0 ROOT
