@<TRIPOS>MOLECULE
4UF
   54    57     1     0     0
SMALL
No Charge or Current Charge


@<TRIPOS>ATOM
      1 C1          -3.0250    -0.4640     0.1360 ca         1 4UF      -0.035000
      2 C2          -2.2550     0.6530    -0.2740 ca         1 4UF      -0.049000
      3 C3          -2.9190     1.8320    -0.7110 ca         1 4UF      -0.054000
      4 C4          -4.3300     1.9020    -0.7520 ca         1 4UF      -0.139000
      5 C5          -4.4190    -0.3560     0.0820 ca         1 4UF      -0.129800
      6 C6          -5.0510     0.7760    -0.3440 ca         1 4UF      -0.026200
      7 C8          -6.7150    -0.7100     0.1990 cc         1 4UF      -0.145300
      8 C9          -5.4680    -1.2840     0.4230 cd         1 4UF      -0.145200
      9 C10         -8.0170    -1.3770     0.4400 c          1 4UF       0.630300
     10 C13        -10.4110    -1.1190     0.3260 c3         1 4UF       0.171600
     11 C14        -11.4170    -0.0340    -0.0870 c3         1 4UF      -0.099100
     12 C15         -0.7900     0.6080    -0.2410 cc         1 4UF      -0.122000
     13 C18          1.3380     1.2230     0.0670 cd         1 4UF       0.197500
     14 C19         -0.0040     1.6720     0.0890 cd         1 4UF      -0.159000
     15 C21          2.5380     2.0810     0.3760 c          1 4UF       0.525600
     16 O23          2.4860     3.2680     0.6810 o          1 4UF      -0.626100
     17 O33          9.6490    -2.6750     0.7580 o          1 4UF      -0.719500
     18 O32          9.7950    -2.1370    -1.3150 o          1 4UF      -0.719500
     19 C28          8.1990    -0.9720    -0.0140 ca         1 4UF      -0.121600
     20 C27          7.5920    -0.7830     1.2500 ca         1 4UF      -0.093000
     21 C26          6.5770     0.1740     1.4250 ca         1 4UF      -0.126000
     22 C29          7.7570    -0.1740    -1.0960 ca         1 4UF      -0.093000
     23 C30          6.7420     0.7820    -0.9170 ca         1 4UF      -0.126000
     24 C25          6.1470     0.9630     0.3440 ca         1 4UF      -0.155300
     25 C24          5.0460     1.9940     0.5340 c3         1 4UF       0.158300
     26 N22          3.7360     1.4050     0.2870 ns         1 4UF      -0.478900
     27 N17          1.4180    -0.0680    -0.2610 nc         1 4UF      -0.503800
     28 N16          0.1010    -0.4440    -0.4440 na         1 4UF       0.148800
     29 N7          -6.4240     0.5870    -0.2850 na         1 4UF      -0.194700
     30 O12         -8.1240    -2.5200     0.8670 o          1 4UF      -0.477000
     31 O11         -9.0920    -0.5810     0.1340 os         1 4UF      -0.463100
     32 H1          -2.5600    -1.3750     0.5020 ha         1 4UF       0.123000
     33 H2          -2.3400     2.6940    -1.0330 ha         1 4UF       0.125000
     34 H3          -4.8360     2.8030    -1.0900 ha         1 4UF       0.118000
     35 H4          -5.3130    -2.2930     0.8030 ha         1 4UF       0.221000
     36 H5         -10.5750    -1.3890     1.3780 h1         1 4UF       0.051200
     37 H6         -10.5630    -2.0150    -0.2920 h1         1 4UF       0.051200
     38 H7         -11.2790     0.2400    -1.1400 hc         1 4UF       0.047033
     39 H8         -12.4420    -0.3980     0.0420 hc         1 4UF       0.047033
     40 H9         -11.2900     0.8650     0.5280 hc         1 4UF       0.047033
     41 H10         -0.3340     2.6730     0.3430 ha         1 4UF       0.158000
     42 H11         -0.4220    -2.4320     0.0170 h1         1 4UF       0.059367
     43 H12         -1.0900    -1.8080    -1.5240 h1         1 4UF       0.059367
     44 H13          0.6370    -2.2420    -1.4100 h1         1 4UF       0.059367
     45 H15          7.9060    -1.3800     2.1040 ha         1 4UF       0.128000
     46 H16          6.1230     0.3000     2.4060 ha         1 4UF       0.088500
     47 H17          8.2000    -0.2930    -2.0820 ha         1 4UF       0.128000
     48 H18          6.4170     1.3820    -1.7640 ha         1 4UF       0.088500
     49 H19          5.0730     2.3860     1.5590 h1         1 4UF       0.045200
     50 H20          5.1960     2.8330    -0.1580 h1         1 4UF       0.045200
     51 H21          3.6820     0.4260     0.0290 hn         1 4UF       0.336500
     52 H22         -7.1190     1.2790    -0.5480 hn         1 4UF       0.364000
     53 C20         -0.2140    -1.8170    -0.8660 c3         1 4UF       0.066900
     54 C31          9.2980    -2.0070    -0.2050 c          1 4UF       0.711600
@<TRIPOS>BOND
     1     1     2 ar  
     2     1     5 ar  
     3     1    32 1   
     4     2     3 ar  
     5     2    12 1   
     6     3     4 ar  
     7     3    33 1   
     8     4     6 ar  
     9     4    34 1   
    10     5     6 ar  
    11     5     8 1   
    12     6    29 1   
    13     7     8 2   
    14     7     9 1   
    15     7    29 1   
    16     8    35 1   
    17     9    30 2   
    18     9    31 1   
    19    10    11 1   
    20    10    31 1   
    21    10    36 1   
    22    10    37 1   
    23    11    38 1   
    24    11    39 1   
    25    11    40 1   
    26    12    14 2   
    27    12    28 1   
    28    13    14 1   
    29    13    15 1   
    30    13    27 2   
    31    14    41 1   
    32    15    16 2   
    33    15    26 1   
    34    17    54 1   
    35    18    54 1   
    36    19    20 ar  
    37    19    22 ar  
    38    19    54 1   
    39    20    21 ar  
    40    20    45 1   
    41    21    24 ar  
    42    21    46 1   
    43    22    23 ar  
    44    22    47 1   
    45    23    24 ar  
    46    23    48 1   
    47    24    25 1   
    48    25    26 1   
    49    25    49 1   
    50    25    50 1   
    51    26    51 1   
    52    27    28 1   
    53    28    53 1   
    54    29    52 1   
    55    42    53 1   
    56    43    53 1   
    57    44    53 1   
@<TRIPOS>SUBSTRUCTURE
     1 4UF         1 TEMP              0 ****  ****    0 ROOT
