@<TRIPOS>MOLECULE
4UF
   54    57     1     0     0
SMALL
bcc


@<TRIPOS>ATOM
      1 C1          -2.9520    -0.4680     0.2400 ca         1 4UF      -0.053000
      2 C2          -2.2790     0.6490    -0.2180 ca         1 4UF      -0.049000
      3 C3          -3.0040     1.7670    -0.6970 ca         1 4UF      -0.072000
      4 C4          -4.3780     1.7860    -0.7310 ca         1 4UF      -0.157000
      5 C5          -4.3510    -0.4800     0.2100 ca         1 4UF      -0.129800
      6 C6          -5.0490     0.6490    -0.2750 ca         1 4UF      -0.026200
      7 C8          -6.5510    -0.8700     0.3340 cc         1 4UF      -0.145300
      8 C9          -5.3320    -1.4350     0.5940 cd         1 4UF      -0.095200
      9 C10         -7.8690    -1.4690     0.5620 c          1 4UF       0.679300
     10 C13        -10.2040    -1.0960     0.3830 c3         1 4UF       0.148400
     11 C14        -11.1130     0.0300    -0.0420 c3         1 4UF      -0.099100
     12 C15         -0.8170     0.7370    -0.1910 cc         1 4UF      -0.071300
     13 C18          1.2920     1.3190     0.0340 cd         1 4UF       0.262800
     14 C19         -0.0150     1.7760     0.2330 cd         1 4UF      -0.242300
     15 C21          2.5420     2.0560     0.3230 c          1 4UF       0.592600
     16 O23          2.5090     3.1650     0.8420 o          1 4UF      -0.626100
     17 O33          9.0790    -2.9180     1.1660 o          1 4UF      -0.824800
     18 O32          9.9410    -2.0930    -0.7160 o          1 4UF      -0.824800
     19 C28          8.0340    -1.0380     0.1930 ca         1 4UF      -0.121600
     20 C27          7.0760    -0.9630     1.2040 ca         1 4UF      -0.111000
     21 C26          6.0970     0.0180     1.1880 ca         1 4UF      -0.144000
     22 C29          7.9790    -0.1020    -0.8350 ca         1 4UF      -0.111000
     23 C30          6.9970     0.8800    -0.8550 ca         1 4UF      -0.144000
     24 C25          6.0480     0.9560     0.1570 ca         1 4UF      -0.155300
     25 C24          4.9860     2.0190     0.1430 c3         1 4UF       0.158300
     26 N22          3.6740     1.4270    -0.0220 ns         1 4UF      -0.545900
     27 N17          1.2970     0.0970    -0.4760 nc         1 4UF      -0.503800
     28 N16          0.0270    -0.2410    -0.6100 na         1 4UF       0.127400
     29 N7          -6.3750     0.3860    -0.1900 na         1 4UF      -0.144400
     30 O12         -8.0240    -2.5780     1.0130 o          1 4UF      -0.526000
     31 O11         -8.8470    -0.6500     0.2150 os         1 4UF      -0.439900
     32 H1          -2.4160    -1.3200     0.6400 ha         1 4UF       0.141000
     33 H2          -2.4570     2.6270    -1.0600 ha         1 4UF       0.143000
     34 H3          -4.9140     2.6490    -1.1060 ha         1 4UF       0.136000
     35 H4          -5.1600    -2.4160     1.0090 ha         1 4UF       0.171000
     36 H5         -10.3730    -1.3630     1.4270 h1         1 4UF       0.051200
     37 H6         -10.3710    -1.9870    -0.2270 h1         1 4UF       0.051200
     38 H7         -10.9640     0.2950    -1.0880 hc         1 4UF       0.047033
     39 H8         -12.1490    -0.2850     0.0790 hc         1 4UF       0.047033
     40 H9         -10.9600     0.9200     0.5700 hc         1 4UF       0.047033
     41 H10         -0.3360     2.7210     0.6390 ha         1 4UF       0.176000
     42 H11         -0.3640    -2.2950    -0.4010 h1         1 4UF       0.059367
     43 H12         -1.2520    -1.4750    -1.6970 h1         1 4UF       0.059367
     44 H13          0.4760    -1.8050    -1.8830 h1         1 4UF       0.059367
     45 H15          7.0990    -1.6790     2.0140 ha         1 4UF       0.146000
     46 H16          5.3660     0.0600     1.9870 ha         1 4UF       0.106500
     47 H17          8.7100    -0.1420    -1.6300 ha         1 4UF       0.146000
     48 H18          6.9720     1.5970    -1.6670 ha         1 4UF       0.106500
     49 H19          5.0000     2.5770     1.0810 h1         1 4UF       0.045200
     50 H20          5.1880     2.7390    -0.6560 h1         1 4UF       0.045200
     51 H21          3.6050     0.5470    -0.5100 hn         1 4UF       0.336500
     52 H22         -7.1150     1.0140    -0.4620 hn         1 4UF       0.313700
     53 C20         -0.3010    -1.5320    -1.1750 c3         1 4UF       0.037600
     54 C31          9.1140    -2.1130     0.2160 c          1 4UF       0.922200
@<TRIPOS>BOND
     1     1     2 ar  
     2     1     5 ar  
     3     1    32 1   
     4     2     3 ar  
     5     2    12 1   
     6     3     4 ar  
     7     3    33 1   
     8     4     6 ar  
     9     4    34 1   
    10     5     6 ar  
    11     5     8 1   
    12     6    29 1   
    13     7     8 2   
    14     7     9 1   
    15     7    29 1   
    16     8    35 1   
    17     9    30 2   
    18     9    31 1   
    19    10    11 1   
    20    10    31 1   
    21    10    36 1   
    22    10    37 1   
    23    11    38 1   
    24    11    39 1   
    25    11    40 1   
    26    12    14 2   
    27    12    28 1   
    28    13    14 1   
    29    13    15 1   
    30    13    27 2   
    31    14    41 1   
    32    15    16 2   
    33    15    26 1   
    34    17    54 1   
    35    18    54 1   
    36    19    20 ar  
    37    19    22 ar  
    38    19    54 1   
    39    20    21 ar  
    40    20    45 1   
    41    21    24 ar  
    42    21    46 1   
    43    22    23 ar  
    44    22    47 1   
    45    23    24 ar  
    46    23    48 1   
    47    24    25 1   
    48    25    26 1   
    49    25    49 1   
    50    25    50 1   
    51    26    51 1   
    52    27    28 1   
    53    28    53 1   
    54    29    52 1   
    55    42    53 1   
    56    43    53 1   
    57    44    53 1   
@<TRIPOS>SUBSTRUCTURE
     1 4UF         1 TEMP              0 ****  ****    0 ROOT
