@<TRIPOS>MOLECULE
4UG
   29    29     1     0     0
SMALL
No Charge or Current Charge


@<TRIPOS>ATOM
      1 C6          -2.9180     1.8830    -0.2050 c6         1 4UG      -0.092400
      2 C11          1.4600     0.2310    -0.1090 c3         1 4UG       0.153500
      3 C13         -1.4410     1.5050     0.0070 c6         1 4UG      -0.072400
      4 C15         -2.3460    -0.9390    -0.1650 c          1 4UG       0.564000
      5 C17          0.1420    -0.5310     0.2140 c3         1 4UG      -0.060400
      6 C19          3.8200     0.6220     0.7160 c1         1 4UG       0.248900
      7 C24          2.6730    -0.3120     0.7310 c3         1 4UG       0.194400
      8 C25         -1.1680     0.0360    -0.4360 c6         1 4UG      -0.132700
      9 C27         -3.8240     0.9580     0.6310 c6         1 4UG       0.115000
     10 N3           1.7090     0.2190    -1.5830 n8         1 4UG      -1.036200
     11 N4          -3.4620    -0.4580     0.4820 ns         1 4UG      -0.508900
     12 O3           3.0600    -1.6330     0.2810 oh         1 4UG      -0.624000
     13 O4          -2.3120    -2.1080    -0.5180 o          1 4UG      -0.579000
     14 H19         -3.0910     2.9300     0.0760 hc         1 4UG       0.054200
     15 H20         -3.1750     1.7940    -1.2700 hc         1 4UG       0.054200
     16 H21          1.3110     1.2790     0.1920 h1         1 4UG       0.071700
     17 H22         -0.7930     2.1950    -0.5510 hc         1 4UG       0.049200
     18 H23         -1.1910     1.6330     1.0700 hc         1 4UG       0.049200
     19 H24          0.2750    -1.5780    -0.0870 hc         1 4UG       0.063200
     20 H25          0.0120    -0.5550     1.3030 hc         1 4UG       0.063200
     21 H26          2.3460    -0.3630     1.7790 h1         1 4UG       0.105700
     22 H27         -1.0140     0.0000    -1.5220 hc         1 4UG       0.088700
     23 H28         -3.7340     1.2210     1.6950 h1         1 4UG       0.039200
     24 H29         -4.8750     1.0940     0.3380 h1         1 4UG       0.039200
     25 H30          2.6060     0.6760    -1.7940 hn         1 4UG       0.416000
     26 H31         -4.1790    -1.1470     0.6740 hn         1 4UG       0.315500
     27 H32          3.6230    -1.5150    -0.5150 ho         1 4UG       0.447000
     28 H2           1.8410    -0.7500    -1.8960 hn         1 4UG       0.416000
     29 N2           4.7410     1.3360     0.6910 n1         1 4UG      -0.442000
@<TRIPOS>BOND
     1     1     3 1   
     2     1     9 1   
     3     1    14 1   
     4     1    15 1   
     5     2     5 1   
     6     2     7 1   
     7     2    10 1   
     8     2    16 1   
     9     3     8 1   
    10     3    17 1   
    11     3    18 1   
    12     4     8 1   
    13     4    11 1   
    14     4    13 2   
    15     5     8 1   
    16     5    19 1   
    17     5    20 1   
    18     6     7 1   
    19     6    29 3   
    20     7    12 1   
    21     7    21 1   
    22     8    22 1   
    23     9    11 1   
    24     9    23 1   
    25     9    24 1   
    26    10    25 1   
    27    10    28 1   
    28    11    26 1   
    29    12    27 1   
@<TRIPOS>SUBSTRUCTURE
     1 4UG         1 TEMP              0 ****  ****    0 ROOT
