@<TRIPOS>MOLECULE
4UG
   29    29     1     0     0
SMALL
bcc


@<TRIPOS>ATOM
      1 C6          -2.7850     1.8490    -0.2630 c6         1 4UG      -0.092400
      2 C11          1.4210     0.2710    -0.0260 c3         1 4UG       0.153500
      3 C13         -1.3840     1.4290     0.1440 c6         1 4UG      -0.072400
      4 C15         -2.2530    -0.9640    -0.0110 c          1 4UG       0.706500
      5 C17          0.1890    -0.5610     0.3210 c3         1 4UG      -0.060400
      6 C19          3.8130     0.5730     0.4950 c1         1 4UG       0.159700
      7 C24          2.6560    -0.3260     0.6910 c3         1 4UG       0.171200
      8 C25         -1.1010    -0.0070    -0.2860 c6         1 4UG      -0.132700
      9 C27         -3.7990     0.9630     0.4260 c6         1 4UG       0.115000
     10 N3           1.5600     0.3990    -1.4580 n8         1 4UG      -0.925800
     11 N4          -3.4590    -0.4370     0.2560 ns         1 4UG      -0.575900
     12 O3           2.9840    -1.6260     0.3020 oh         1 4UG      -0.561800
     13 O4          -2.0930    -2.1790    -0.0730 o          1 4UG      -0.654500
     14 H19         -2.9770     2.8880     0.0070 hc         1 4UG       0.054200
     15 H20         -2.8980     1.7730    -1.3490 hc         1 4UG       0.054200
     16 H21          1.3000     1.2780     0.3860 h1         1 4UG       0.071700
     17 H22         -0.6460     2.0950    -0.3060 hc         1 4UG       0.049200
     18 H23         -1.2740     1.5230     1.2300 hc         1 4UG       0.049200
     19 H24          0.3390    -1.5880    -0.0160 hc         1 4UG       0.063200
     20 H25          0.0900    -0.5990     1.4100 hc         1 4UG       0.063200
     21 H26          2.4590    -0.3520     1.7660 h1         1 4UG       0.105700
     22 H27         -0.9850    -0.0100    -1.3770 hc         1 4UG       0.088700
     23 H28         -3.8470     1.2100     1.4920 h1         1 4UG       0.039200
     24 H29         -4.7980     1.1230     0.0180 h1         1 4UG       0.039200
     25 H30          2.3390     0.9850    -1.7280 hn         1 4UG       0.360800
     26 H31         -4.1920    -1.1080     0.4350 hn         1 4UG       0.315500
     27 H32          3.0750    -1.6570    -0.6570 ho         1 4UG       0.408000
     28 H2           1.6550    -0.4940    -1.9240 hn         1 4UG       0.360800
     29 N2           4.7090     1.2730     0.3250 n1         1 4UG      -0.352800
@<TRIPOS>BOND
     1     1     3 1   
     2     1     9 1   
     3     1    14 1   
     4     1    15 1   
     5     2     5 1   
     6     2     7 1   
     7     2    10 1   
     8     2    16 1   
     9     3     8 1   
    10     3    17 1   
    11     3    18 1   
    12     4     8 1   
    13     4    11 1   
    14     4    13 2   
    15     5     8 1   
    16     5    19 1   
    17     5    20 1   
    18     6     7 1   
    19     6    29 3   
    20     7    12 1   
    21     7    21 1   
    22     8    22 1   
    23     9    11 1   
    24     9    23 1   
    25     9    24 1   
    26    10    25 1   
    27    10    28 1   
    28    11    26 1   
    29    12    27 1   
@<TRIPOS>SUBSTRUCTURE
     1 4UG         1 TEMP              0 ****  ****    0 ROOT
