@<TRIPOS>MOLECULE
4UH
  147   149     1     0     0
SMALL
No Charge or Current Charge


@<TRIPOS>ATOM
      1 C8          79.9280    19.9030    20.7990 c6         1 4UH       0.163300
      2 C5          77.6110    22.5500    20.0110 c3         1 4UH      -0.083400
      3 C6          76.9550    21.1520    20.0250 c3         1 4UH       0.190300
      4 C2          78.3400    24.3650    21.7000 c6         1 4UH      -0.218700
      5 C4          77.1620    23.5240    21.1480 c6         1 4UH       0.185300
      6 N           82.2460    18.9690    20.1980 n8         1 4UH      -0.969200
      7 C01         65.9120    24.2900     7.2050 c3         1 4UH      -0.106100
      8 C02         65.0400    24.3430     8.4770 c3         1 4UH       0.179300
      9 C04         65.0120    26.0540    10.2170 c          1 4UH       0.601100
     10 C06         65.9290    26.7820    11.1940 c3         1 4UH      -0.174400
     11 C07         66.2190    25.9210    12.4400 c3         1 4UH       0.193300
     12 C09         67.2680    26.5730    13.3740 c3         1 4UH      -0.076400
     13 C1          77.8480    25.5410    22.5790 c6         1 4UH       0.183300
     14 C10         67.6680    25.7280    14.6130 c3         1 4UH       0.183300
     15 C11         79.0710    17.1720    21.5740 c6         1 4UH       0.157300
     16 C12         68.7590    26.4340    15.4520 c3         1 4UH      -0.119400
     17 C13         69.3830    25.5780    16.5900 c3         1 4UH      -0.070400
     18 C14         70.4640    26.3480    17.3940 c3         1 4UH       0.179300
     19 C15         80.6000    17.4920    21.4310 c6         1 4UH       0.139300
     20 C16         71.2860    25.4520    18.3780 c3         1 4UH       0.160300
     21 C17         78.7630    16.1490    22.6980 c3         1 4UH      -0.086100
     22 C18         72.4900    26.2010    19.0020 c3         1 4UH      -0.127400
     23 C19         73.3990    25.3440    19.9190 c3         1 4UH       0.193300
     24 C20         75.4080    21.1790    20.1120 c3         1 4UH      -0.085400
     25 C3          79.2600    23.4310    22.4920 c          1 4UH       0.738000
     26 C31         74.5740    26.1720    20.4950 c3         1 4UH      -0.093400
     27 C32         75.5970    25.3980    21.3750 c6         1 4UH       0.421000
     28 C33         76.7200    26.3290    21.8810 c6         1 4UH      -0.178400
     29 C46         74.7520    19.7860    19.9580 c3         1 4UH      -0.073400
     30 C47         73.2210    19.7820    20.1740 c3         1 4UH      -0.071400
     31 C48         72.4170    20.5780    19.1190 c3         1 4UH      -0.077400
     32 C49         70.8930    20.4690    19.3350 c3         1 4UH      -0.073400
     33 C50         70.0650    21.1860    18.2470 c3         1 4UH      -0.075400
     34 C51         68.5440    21.0290    18.4630 c3         1 4UH      -0.071400
     35 C52         67.7000    21.6580    17.3350 c3         1 4UH      -0.073400
     36 C53         66.1840    21.4480    17.5300 c3         1 4UH      -0.043200
     37 C54         65.3880    21.9850    16.3610 c2         1 4UH      -0.209200
     38 C55         64.7460    21.2350    15.4520 c2         1 4UH      -0.223200
     39 C56         63.9990    21.7780    14.2560 c3         1 4UH      -0.012000
     40 C57         64.5200    21.1550    12.9810 c2         1 4UH      -0.210200
     41 C58         65.4130    21.7330    12.1640 c2         1 4UH      -0.221200
     42 C59         65.8960    21.1680    10.8370 c3         1 4UH      -0.052500
     43 C60         67.1830    20.3510    11.1230 c3         1 4UH      -0.092100
     44 C61         66.0910    22.2930     9.7570 c3         1 4UH       0.186300
     45 C63         64.7820    22.9570     9.1720 c3         1 4UH      -0.056700
     46 C64         63.5930    23.0640    10.1650 c3         1 4UH      -0.081100
     47 C7          78.4370    19.3860    20.8760 c6         1 4UH       0.381300
     48 C9          80.7990    18.6580    20.3990 c6         1 4UH       0.158500
     49 O03         65.7280    25.2220     9.3940 os         1 4UH      -0.470100
     50 O05         63.7990    26.2060    10.1760 o          1 4UH      -0.490000
     51 O08         65.0170    25.7280    13.1760 oh         1 4UH      -0.641000
     52 O1          78.9340    26.4250    22.8600 oh         1 4UH      -0.636000
     53 O11         66.5160    25.5130    15.4360 oh         1 4UH      -0.651000
     54 O12         76.1600    24.3780    20.5490 os         1 4UH      -0.508000
     55 O15         69.8360    27.4020    18.1360 oh         1 4UH      -0.652000
     56 O17         70.4580    24.9930    19.4510 oh         1 4UH      -0.669000
     57 O2          78.8580    22.9870    23.5560 o          1 4UH      -0.714500
     58 O20         72.6330    24.8320    21.0130 oh         1 4UH      -0.709000
     59 O3          80.3230    23.0990    21.9860 o          1 4UH      -0.714500
     60 O4          77.4590    20.4110    21.1560 os         1 4UH      -0.427000
     61 O5          80.4070    20.4880    22.0450 oh         1 4UH      -0.735000
     62 O6          81.3600    16.3220    21.0300 oh         1 4UH      -0.740000
     63 O62         66.8360    21.7400     8.6610 oh         1 4UH      -0.672000
     64 O7          78.3290    18.3690    21.8920 os         1 4UH      -0.440000
     65 O8          74.9040    24.7790    22.4510 oh         1 4UH      -0.718000
     66 H49         80.0060    20.6380    19.9870 h1         1 4UH       0.026700
     67 H45         78.6950    22.4170    20.0170 hc         1 4UH       0.066200
     68 H46         77.4030    23.0080    19.0370 hc         1 4UH       0.066200
     69 H47         77.2250    20.6500    19.0870 h1         1 4UH       0.016700
     70 H43         78.9010    24.7500    20.8390 hc         1 4UH       0.062700
     71 H44         76.7130    22.9440    21.9670 h1         1 4UH       0.061700
     72 HN2         82.7370    18.0670    20.2030 hn         1 4UH       0.389000
     73 HN1         82.3800    19.3140    19.2430 hn         1 4UH       0.389000
     74 H2          65.8860    25.2570     6.6900 hc         1 4UH       0.047033
     75 H3          66.9580    24.0650     7.4430 hc         1 4UH       0.047033
     76 H1          65.5390    23.5280     6.5100 hc         1 4UH       0.047033
     77 H           64.0740    24.7650     8.1660 h1         1 4UH       0.065700
     78 H4          66.8930    26.9430    10.7000 hc         1 4UH       0.078200
     79 H5          65.4770    27.7340    11.4930 hc         1 4UH       0.078200
     80 H6          66.6160    24.9510    12.1090 h1         1 4UH       0.036700
     81 H8          68.1730    26.7710    12.7880 hc         1 4UH       0.055700
     82 H7          66.8970    27.5500    13.7090 hc         1 4UH       0.055700
     83 H42         77.4460    25.1390    23.5210 h1         1 4UH       0.048700
     84 H9          68.0640    24.7650    14.2640 h1         1 4UH       0.021700
     85 H52         78.6890    16.7690    20.6240 h1         1 4UH       0.022700
     86 H10         69.5690    26.7430    14.7800 hc         1 4UH       0.050700
     87 H11         68.3400    27.3570    15.8720 hc         1 4UH       0.050700
     88 H13         68.6040    25.2280    17.2770 hc         1 4UH       0.056200
     89 H12         69.8390    24.6830    16.1480 hc         1 4UH       0.056200
     90 H14         71.1690    26.7780    16.6700 h1         1 4UH       0.018700
     91 H51         80.9570    17.8510    22.4090 h1         1 4UH       0.085700
     92 H15         71.6780    24.5920    17.8170 h1         1 4UH       0.027700
     93 H55         77.6820    15.9960    22.8020 hc         1 4UH       0.039033
     94 H54         79.2100    15.1720    22.4820 hc         1 4UH       0.039033
     95 H53         79.1490    16.4910    23.6650 hc         1 4UH       0.039033
     96 H17         73.1050    26.6000    18.1870 hc         1 4UH       0.048700
     97 H16         72.1290    27.0680    19.5690 hc         1 4UH       0.048700
     98 H18         73.8110    24.5150    19.3270 h1         1 4UH       0.049700
     99 H56         75.0300    21.8450    19.3270 hc         1 4UH       0.051200
    100 H57         75.0980    21.6120    21.0700 hc         1 4UH       0.051200
    101 H59         75.1110    26.6290    19.6550 hc         1 4UH       0.055200
    102 H58         74.1630    27.0080    21.0740 hc         1 4UH       0.055200
    103 H60         77.1370    26.8850    21.0290 hc         1 4UH       0.049700
    104 H61         76.3020    27.0790    22.5660 hc         1 4UH       0.049700
    105 H20         75.1980    19.0970    20.6850 hc         1 4UH       0.042700
    106 H19         74.9810    19.3820    18.9640 hc         1 4UH       0.042700
    107 H21         72.9970    20.1760    21.1730 hc         1 4UH       0.035200
    108 H62         72.8770    18.7400    20.1660 hc         1 4UH       0.035200
    109 H63         72.6680    20.2040    18.1180 hc         1 4UH       0.037700
    110 H22         72.7030    21.6360    19.1510 hc         1 4UH       0.037700
    111 H64         70.6370    20.8860    20.3170 hc         1 4UH       0.035200
    112 H23         70.6100    19.4090    19.3550 hc         1 4UH       0.035200
    113 H24         70.3340    20.7770    17.2650 hc         1 4UH       0.037700
    114 H65         70.3230    22.2520    18.2340 hc         1 4UH       0.037700
    115 H25         68.2660    21.4850    19.4210 hc         1 4UH       0.036700
    116 H66         68.3020    19.9610    18.5340 hc         1 4UH       0.036700
    117 H26         67.9990    21.2190    16.3750 hc         1 4UH       0.039200
    118 H67         67.9130    22.7330    17.2760 hc         1 4UH       0.039200
    119 H68         65.8630    21.9360    18.4580 hc         1 4UH       0.044200
    120 H27         65.9880    20.3760    17.6570 hc         1 4UH       0.044200
    121 H28         65.3840    23.0730    16.2810 ha         1 4UH       0.167000
    122 H29         64.7560    20.1460    15.5230 ha         1 4UH       0.164000
    123 H30         64.0980    22.8700    14.2100 hc         1 4UH       0.056200
    124 H69         62.9250    21.5760    14.3570 hc         1 4UH       0.056200
    125 H31         64.0780    20.1890    12.7310 ha         1 4UH       0.163000
    126 H32         65.8400    22.7020    12.4280 ha         1 4UH       0.169000
    127 H33         65.1510    20.4600    10.4520 hc         1 4UH       0.060700
    128 H36         67.0100    19.6390    11.9390 hc         1 4UH       0.037033
    129 H35         67.4960    19.7680    10.2480 hc         1 4UH       0.037033
    130 H34         68.0080    21.0100    11.4200 hc         1 4UH       0.037033
    131 H37         66.6910    23.0800    10.2340 h1         1 4UH       0.039700
    132 H38         64.4190    22.2840     8.3850 hc         1 4UH       0.070700
    133 H40         63.2480    22.0710    10.4760 hc         1 4UH       0.038367
    134 H41         63.8640    23.6350    11.0610 hc         1 4UH       0.038367
    135 H39         62.7380    23.5630     9.6920 hc         1 4UH       0.038367
    136 H48         78.1750    18.9220    19.9130 h2         1 4UH      -0.013300
    137 H50         80.4420    18.2950    19.4240 h1         1 4UH      -0.001300
    138 HO          65.3260    25.5970    14.1100 ho         1 4UH       0.443000
    139 HO6         78.5660    27.1640    23.3890 ho         1 4UH       0.420000
    140 HO1         66.8460    25.3430    16.3430 ho         1 4UH       0.445000
    141 HO2         69.6120    26.9860    18.9990 ho         1 4UH       0.437000
    142 HO3         71.1100    24.8280    20.1870 ho         1 4UH       0.481000
    143 HO4         73.3210    24.6850    21.7200 ho         1 4UH       0.493000
    144 HO7         80.3600    21.4910    21.9570 ho         1 4UH       0.589000
    145 HO8         81.3900    15.7170    21.8070 ho         1 4UH       0.497000
    146 HO5         67.6650    21.3800     9.0390 ho         1 4UH       0.443000
    147 HO9         75.5940    24.3320    22.9810 ho         1 4UH       0.474000
@<TRIPOS>BOND
     1     1    47 1   
     2     1    48 1   
     3     1    61 1   
     4     1    66 1   
     5     2     3 1   
     6     2     5 1   
     7     2    67 1   
     8     2    68 1   
     9     3    24 1   
    10     3    60 1   
    11     3    69 1   
    12     4     5 1   
    13     4    13 1   
    14     4    25 1   
    15     4    70 1   
    16     5    54 1   
    17     5    71 1   
    18     6    48 1   
    19     6    72 1   
    20     6    73 1   
    21     7     8 1   
    22     7    74 1   
    23     7    75 1   
    24     7    76 1   
    25     8    45 1   
    26     8    49 1   
    27     8    77 1   
    28     9    10 1   
    29     9    49 1   
    30     9    50 2   
    31    10    11 1   
    32    10    78 1   
    33    10    79 1   
    34    11    12 1   
    35    11    51 1   
    36    11    80 1   
    37    12    14 1   
    38    12    81 1   
    39    12    82 1   
    40    13    28 1   
    41    13    52 1   
    42    13    83 1   
    43    14    16 1   
    44    14    53 1   
    45    14    84 1   
    46    15    19 1   
    47    15    21 1   
    48    15    64 1   
    49    15    85 1   
    50    16    17 1   
    51    16    86 1   
    52    16    87 1   
    53    17    18 1   
    54    17    88 1   
    55    17    89 1   
    56    18    20 1   
    57    18    55 1   
    58    18    90 1   
    59    19    48 1   
    60    19    62 1   
    61    19    91 1   
    62    20    22 1   
    63    20    56 1   
    64    20    92 1   
    65    21    93 1   
    66    21    94 1   
    67    21    95 1   
    68    22    23 1   
    69    22    96 1   
    70    22    97 1   
    71    23    26 1   
    72    23    58 1   
    73    23    98 1   
    74    24    29 1   
    75    24    99 1   
    76    24   100 1   
    77    25    57 1   
    78    25    59 1   
    79    26    27 1   
    80    26   101 1   
    81    26   102 1   
    82    27    28 1   
    83    27    54 1   
    84    27    65 1   
    85    28   103 1   
    86    28   104 1   
    87    29    30 1   
    88    29   105 1   
    89    29   106 1   
    90    30    31 1   
    91    30   107 1   
    92    30   108 1   
    93    31    32 1   
    94    31   109 1   
    95    31   110 1   
    96    32    33 1   
    97    32   111 1   
    98    32   112 1   
    99    33    34 1   
   100    33   113 1   
   101    33   114 1   
   102    34    35 1   
   103    34   115 1   
   104    34   116 1   
   105    35    36 1   
   106    35   117 1   
   107    35   118 1   
   108    36    37 1   
   109    36   119 1   
   110    36   120 1   
   111    37    38 2   
   112    37   121 1   
   113    38    39 1   
   114    38   122 1   
   115    39    40 1   
   116    39   123 1   
   117    39   124 1   
   118    40    41 2   
   119    40   125 1   
   120    41    42 1   
   121    41   126 1   
   122    42    43 1   
   123    42    44 1   
   124    42   127 1   
   125    43   128 1   
   126    43   129 1   
   127    43   130 1   
   128    44    45 1   
   129    44    63 1   
   130    44   131 1   
   131    45    46 1   
   132    45   132 1   
   133    46   133 1   
   134    46   134 1   
   135    46   135 1   
   136    47    60 1   
   137    47    64 1   
   138    47   136 1   
   139    48   137 1   
   140    51   138 1   
   141    52   139 1   
   142    53   140 1   
   143    55   141 1   
   144    56   142 1   
   145    58   143 1   
   146    61   144 1   
   147    62   145 1   
   148    63   146 1   
   149    65   147 1   
@<TRIPOS>SUBSTRUCTURE
     1 4UH         1 TEMP              0 ****  ****    0 ROOT
