@<TRIPOS>MOLECULE
4UH
  147   149     1     0     0
SMALL
abcg2


@<TRIPOS>ATOM
      1 C8          80.0400    20.0620    20.8010 c6         1 4UH       0.163300
      2 C5          77.5260    22.6560    20.0470 c3         1 4UH      -0.083400
      3 C6          77.0330    21.2110    19.9900 c3         1 4UH       0.190300
      4 C2          78.0030    24.3520    21.9240 c6         1 4UH      -0.218700
      5 C4          76.9600    23.4820    21.2060 c6         1 4UH       0.185300
      6 N           82.3780    19.3480    20.5240 n8         1 4UH      -0.969200
      7 C01         66.1070    23.9650     7.5920 c3         1 4UH      -0.106100
      8 C02         65.1060    24.1130     8.7230 c3         1 4UH       0.179300
      9 C04         65.6730    26.1580     9.8620 c          1 4UH       0.601100
     10 C06         66.5430    26.7080    10.9620 c3         1 4UH      -0.174400
     11 C07         66.4870    25.9560    12.2960 c3         1 4UH       0.193300
     12 C09         67.4170    26.6370    13.2910 c3         1 4UH      -0.076400
     13 C1          77.3050    25.2900    22.8960 c6         1 4UH       0.183300
     14 C10         67.6850    25.8770    14.5850 c3         1 4UH       0.183300
     15 C11         79.2340    17.3170    21.1470 c6         1 4UH       0.157300
     16 C12         68.9330    26.4300    15.2750 c3         1 4UH      -0.119400
     17 C13         69.3810    25.6290    16.4950 c3         1 4UH      -0.070400
     18 C14         70.5860    26.2450    17.1930 c3         1 4UH       0.179300
     19 C15         80.7190    17.6980    21.2360 c6         1 4UH       0.139300
     20 C16         71.2080    25.3040    18.2320 c3         1 4UH       0.160300
     21 C17         78.8680    16.1730    22.0710 c3         1 4UH      -0.086100
     22 C18         72.3480    25.9890    18.9870 c3         1 4UH      -0.127400
     23 C19         73.2090    25.0560    19.8350 c3         1 4UH       0.193300
     24 C20         75.5170    21.1070    20.0910 c3         1 4UH      -0.085400
     25 C3          78.9770    23.4000    22.6510 c          1 4UH       0.738000
     26 C31         74.2130    25.8860    20.6350 c3         1 4UH      -0.093400
     27 C32         75.2000    25.1070    21.5010 c6         1 4UH       0.421000
     28 C33         76.1750    26.0480    22.2090 c6         1 4UH      -0.178400
     29 C46         74.9540    19.7020    19.9210 c3         1 4UH      -0.073400
     30 C47         73.4440    19.6470    20.1480 c3         1 4UH      -0.071400
     31 C48         72.6320    20.4570    19.1450 c3         1 4UH      -0.077400
     32 C49         71.1290    20.3750    19.3770 c3         1 4UH      -0.073400
     33 C50         70.3320    21.1320    18.3240 c3         1 4UH      -0.075400
     34 C51         68.8260    21.0800    18.5400 c3         1 4UH      -0.071400
     35 C52         68.0510    21.7620    17.4220 c3         1 4UH      -0.073400
     36 C53         66.5360    21.7380    17.6260 c3         1 4UH      -0.043200
     37 C54         65.8130    22.3990    16.4970 c2         1 4UH      -0.209200
     38 C55         64.8750    21.8360    15.7430 c2         1 4UH      -0.223200
     39 C56         64.2060    22.5100    14.5790 c3         1 4UH      -0.012000
     40 C57         64.3200    21.6860    13.3290 c2         1 4UH      -0.210200
     41 C58         65.1680    21.9300    12.3370 c2         1 4UH      -0.221200
     42 C59         65.3410    21.0670    11.1180 c3         1 4UH      -0.052500
     43 C60         66.4560    20.0510    11.4050 c3         1 4UH      -0.092100
     44 C61         65.6950    21.9160     9.8810 c3         1 4UH       0.186300
     45 C63         64.5670    22.8050     9.3080 c3         1 4UH      -0.056700
     46 C64         63.3760    23.1040    10.2160 c3         1 4UH      -0.081100
     47 C7          78.6080    19.5290    20.6540 c6         1 4UH       0.381300
     48 C9          80.9920    18.9350    20.3900 c6         1 4UH       0.158500
     49 O03         65.7350    24.8340     9.8050 os         1 4UH      -0.470100
     50 O05         65.0330    26.8400     9.1000 o          1 4UH      -0.490000
     51 O08         65.1700    25.9370    12.8040 oh         1 4UH      -0.641000
     52 O1          78.2760    26.1760    23.4130 oh         1 4UH      -0.636000
     53 O11         66.5400    25.9760    15.4130 oh         1 4UH      -0.651000
     54 O12         75.9080    24.2600    20.6420 os         1 4UH      -0.508000
     55 O15         70.1690    27.4750    17.7530 oh         1 4UH      -0.652000
     56 O17         70.1990    24.8480    19.1060 oh         1 4UH      -0.669000
     57 O2          78.6090    22.9340    23.7380 o          1 4UH      -0.714500
     58 O20         72.3470    24.2870    20.6620 oh         1 4UH      -0.709000
     59 O3          80.0470    23.1210    22.0470 o          1 4UH      -0.714500
     60 O4          77.6330    20.4440    21.0290 os         1 4UH      -0.427000
     61 O5          80.3060    20.4880    22.1020 oh         1 4UH      -0.735000
     62 O6          81.5310    16.6510    20.7480 oh         1 4UH      -0.740000
     63 O62         66.1110    21.0970     8.8000 oh         1 4UH      -0.672000
     64 O7          78.4130    18.4200    21.4860 os         1 4UH      -0.440000
     65 O8          74.4220    24.3700    22.4210 oh         1 4UH      -0.718000
     66 H49         80.1640    20.8800    20.0730 h1         1 4UH       0.026700
     67 H45         78.6150    22.6570    20.0740 hc         1 4UH       0.066200
     68 H46         77.2490    23.1510    19.1130 hc         1 4UH       0.066200
     69 H47         77.3340    20.7980    19.0170 h1         1 4UH       0.016700
     70 H43         78.5370    24.9490    21.1750 hc         1 4UH       0.062700
     71 H44         76.5410    22.8060    21.9650 h1         1 4UH       0.061700
     72 HN2         82.9750    18.6230    20.1480 hn         1 4UH       0.389000
     73 HN1         82.5400    20.1630    19.9440 hn         1 4UH       0.389000
     74 H2          66.3690    24.9420     7.1840 hc         1 4UH       0.047033
     75 H3          67.0230    23.4720     7.9130 hc         1 4UH       0.047033
     76 H1          65.6700    23.3760     6.7860 hc         1 4UH       0.047033
     77 H           64.2520    24.6920     8.3630 h1         1 4UH       0.065700
     78 H4          67.5720    26.6920    10.5870 hc         1 4UH       0.078200
     79 H5          66.2780    27.7560    11.1110 hc         1 4UH       0.078200
     80 H6          66.8570    24.9340    12.1430 h1         1 4UH       0.036700
     81 H8          68.3780    26.7730    12.7870 hc         1 4UH       0.055700
     82 H7          67.0490    27.6420    13.5240 hc         1 4UH       0.055700
     83 H42         76.8920    24.6800    23.7110 h1         1 4UH       0.048700
     84 H9          67.8800    24.8220    14.3320 h1         1 4UH       0.021700
     85 H52         79.0310    17.0160    20.1060 h1         1 4UH       0.022700
     86 H10         69.7520    26.4330    14.5490 hc         1 4UH       0.050700
     87 H11         68.7540    27.4740    15.5470 hc         1 4UH       0.050700
     88 H13         68.5740    25.5330    17.2290 hc         1 4UH       0.056200
     89 H12         69.6330    24.6120    16.1800 hc         1 4UH       0.056200
     90 H14         71.3670    26.4150    16.4350 h1         1 4UH       0.018700
     91 H51         80.9620    17.9260    22.2830 h1         1 4UH       0.085700
     92 H15         71.6330    24.4620    17.6590 h1         1 4UH       0.027700
     93 H55         77.8060    15.9380    21.9970 hc         1 4UH       0.039033
     94 H54         79.4180    15.2710    21.8050 hc         1 4UH       0.039033
     95 H53         79.0960    16.4160    23.1100 hc         1 4UH       0.039033
     96 H17         73.0110    26.4790    18.2670 hc         1 4UH       0.048700
     97 H16         71.9370    26.7760    19.6290 hc         1 4UH       0.048700
     98 H18         73.7570    24.3850    19.1590 h1         1 4UH       0.049700
     99 H56         75.0990    21.7690    19.3280 hc         1 4UH       0.051200
    100 H57         75.1780    21.5060    21.0520 hc         1 4UH       0.051200
    101 H59         74.7840    26.4930    19.9280 hc         1 4UH       0.055200
    102 H58         73.6740    26.5870    21.2800 hc         1 4UH       0.055200
    103 H60         76.6090    26.7210    21.4640 hc         1 4UH       0.049700
    104 H61         75.6330    26.6680    22.9290 hc         1 4UH       0.049700
    105 H20         75.4410    19.0230    20.6260 hc         1 4UH       0.042700
    106 H19         75.1880    19.3260    18.9190 hc         1 4UH       0.042700
    107 H21         73.2230    19.9990    21.1620 hc         1 4UH       0.035200
    108 H62         73.1130    18.6040    20.1110 hc         1 4UH       0.035200
    109 H63         72.8630    20.1080    18.1320 hc         1 4UH       0.037700
    110 H22         72.9320    21.5100    19.1780 hc         1 4UH       0.037700
    111 H64         70.8930    20.7720    20.3710 hc         1 4UH       0.035200
    112 H23         70.8140    19.3260    19.3860 hc         1 4UH       0.035200
    113 H24         70.5690    20.7230    17.3350 hc         1 4UH       0.037700
    114 H65         70.6570    22.1780    18.3050 hc         1 4UH       0.037700
    115 H25         68.5760    21.5480    19.4990 hc         1 4UH       0.036700
    116 H66         68.5030    20.0360    18.6190 hc         1 4UH       0.036700
    117 H26         68.2940    21.2840    16.4680 hc         1 4UH       0.039200
    118 H67         68.3840    22.8020    17.3340 hc         1 4UH       0.039200
    119 H68         66.3020    22.2490    18.5670 hc         1 4UH       0.044200
    120 H27         66.1900    20.7060    17.7390 hc         1 4UH       0.044200
    121 H28         66.1110    23.4210    16.2750 ha         1 4UH       0.167000
    122 H29         64.5680    20.8130    15.9500 ha         1 4UH       0.164000
    123 H30         64.6440    23.5010    14.4240 hc         1 4UH       0.056200
    124 H69         63.1450    22.6650    14.8060 hc         1 4UH       0.056200
    125 H31         63.6630    20.8220    13.2590 ha         1 4UH       0.163000
    126 H32         65.8350    22.7890    12.4170 ha         1 4UH       0.169000
    127 H33         64.4160    20.5100    10.9330 hc         1 4UH       0.060700
    128 H36         66.2280    19.4940    12.3130 hc         1 4UH       0.037033
    129 H35         66.5740    19.3240    10.6010 hc         1 4UH       0.037033
    130 H34         67.4160    20.5500    11.5600 hc         1 4UH       0.037033
    131 H37         66.5340    22.5560    10.1920 h1         1 4UH       0.039700
    132 H38         64.1600    22.2520     8.4540 hc         1 4UH       0.070700
    133 H40         62.9090    22.1940    10.5880 hc         1 4UH       0.038367
    134 H41         63.6350    23.7110    11.0810 hc         1 4UH       0.038367
    135 H39         62.6200    23.6460     9.6450 hc         1 4UH       0.038367
    136 H48         78.4630    19.2290    19.5980 h2         1 4UH      -0.013300
    137 H50         80.7330    18.6740    19.3490 h1         1 4UH      -0.001300
    138 HO          64.6940    25.1990    12.4130 ho         1 4UH       0.443000
    139 HO6         77.8680    26.6980    24.1120 ho         1 4UH       0.420000
    140 HO1         66.7520    25.6060    16.2740 ho         1 4UH       0.445000
    141 HO2         70.9430    28.0230    17.9090 ho         1 4UH       0.437000
    142 HO3         70.6530    24.4290    19.8500 ho         1 4UH       0.481000
    143 HO4         72.8640    23.9220    21.3940 ho         1 4UH       0.493000
    144 HO7         80.2550    21.4740    22.1330 ho         1 4UH       0.589000
    145 HO8         81.6590    16.0020    21.4450 ho         1 4UH       0.497000
    146 HO5         66.9970    20.7730     8.9830 ho         1 4UH       0.443000
    147 HO9         74.9530    24.0140    23.1420 ho         1 4UH       0.474000
@<TRIPOS>BOND
     1     1    47 1   
     2     1    48 1   
     3     1    61 1   
     4     1    66 1   
     5     2     3 1   
     6     2     5 1   
     7     2    67 1   
     8     2    68 1   
     9     3    24 1   
    10     3    60 1   
    11     3    69 1   
    12     4     5 1   
    13     4    13 1   
    14     4    25 1   
    15     4    70 1   
    16     5    54 1   
    17     5    71 1   
    18     6    48 1   
    19     6    72 1   
    20     6    73 1   
    21     7     8 1   
    22     7    74 1   
    23     7    75 1   
    24     7    76 1   
    25     8    45 1   
    26     8    49 1   
    27     8    77 1   
    28     9    10 1   
    29     9    49 1   
    30     9    50 2   
    31    10    11 1   
    32    10    78 1   
    33    10    79 1   
    34    11    12 1   
    35    11    51 1   
    36    11    80 1   
    37    12    14 1   
    38    12    81 1   
    39    12    82 1   
    40    13    28 1   
    41    13    52 1   
    42    13    83 1   
    43    14    16 1   
    44    14    53 1   
    45    14    84 1   
    46    15    19 1   
    47    15    21 1   
    48    15    64 1   
    49    15    85 1   
    50    16    17 1   
    51    16    86 1   
    52    16    87 1   
    53    17    18 1   
    54    17    88 1   
    55    17    89 1   
    56    18    20 1   
    57    18    55 1   
    58    18    90 1   
    59    19    48 1   
    60    19    62 1   
    61    19    91 1   
    62    20    22 1   
    63    20    56 1   
    64    20    92 1   
    65    21    93 1   
    66    21    94 1   
    67    21    95 1   
    68    22    23 1   
    69    22    96 1   
    70    22    97 1   
    71    23    26 1   
    72    23    58 1   
    73    23    98 1   
    74    24    29 1   
    75    24    99 1   
    76    24   100 1   
    77    25    57 1   
    78    25    59 1   
    79    26    27 1   
    80    26   101 1   
    81    26   102 1   
    82    27    28 1   
    83    27    54 1   
    84    27    65 1   
    85    28   103 1   
    86    28   104 1   
    87    29    30 1   
    88    29   105 1   
    89    29   106 1   
    90    30    31 1   
    91    30   107 1   
    92    30   108 1   
    93    31    32 1   
    94    31   109 1   
    95    31   110 1   
    96    32    33 1   
    97    32   111 1   
    98    32   112 1   
    99    33    34 1   
   100    33   113 1   
   101    33   114 1   
   102    34    35 1   
   103    34   115 1   
   104    34   116 1   
   105    35    36 1   
   106    35   117 1   
   107    35   118 1   
   108    36    37 1   
   109    36   119 1   
   110    36   120 1   
   111    37    38 2   
   112    37   121 1   
   113    38    39 1   
   114    38   122 1   
   115    39    40 1   
   116    39   123 1   
   117    39   124 1   
   118    40    41 2   
   119    40   125 1   
   120    41    42 1   
   121    41   126 1   
   122    42    43 1   
   123    42    44 1   
   124    42   127 1   
   125    43   128 1   
   126    43   129 1   
   127    43   130 1   
   128    44    45 1   
   129    44    63 1   
   130    44   131 1   
   131    45    46 1   
   132    45   132 1   
   133    46   133 1   
   134    46   134 1   
   135    46   135 1   
   136    47    60 1   
   137    47    64 1   
   138    47   136 1   
   139    48   137 1   
   140    51   138 1   
   141    52   139 1   
   142    53   140 1   
   143    55   141 1   
   144    56   142 1   
   145    58   143 1   
   146    61   144 1   
   147    62   145 1   
   148    63   146 1   
   149    65   147 1   
@<TRIPOS>SUBSTRUCTURE
     1 4UH         1 TEMP              0 ****  ****    0 ROOT
