@<TRIPOS>MOLECULE
4UI
   46    50     1     0     0
SMALL
abcg2


@<TRIPOS>ATOM
      1 C1         -23.5320    29.5130    15.7060 ca         1 4UI      -0.099000
      2 C2         -23.2970    29.1860    17.0200 ca         1 4UI       0.145000
      3 N1         -21.1980    32.1960    15.2090 na         1 4UI      -0.067700
      4 C3         -22.3630    29.8420    17.8220 ca         1 4UI      -0.133000
      5 C4         -21.6130    30.8780    17.2970 ca         1 4UI      -0.093000
      6 C5         -21.8270    31.2330    15.9700 ca         1 4UI      -0.059200
      7 C6         -22.7730    30.5540    15.1620 ca         1 4UI      -0.030800
      8 C7         -21.6920    32.1010    13.9380 cc         1 4UI      -0.097300
      9 C8         -22.6600    31.1470    13.8740 cd         1 4UI      -0.013600
     10 C9         -21.4530    32.8910    12.7010 c5         1 4UI      -0.009200
     11 C10        -21.9400    31.9530    11.5890 c5         1 4UI       0.131600
     12 C11        -22.3020    32.5570    10.2620 ca         1 4UI      -0.074300
     13 C12        -22.4180    33.9270    10.0500 ca         1 4UI      -0.098000
     14 C13        -22.7500    34.4240     8.7950 ca         1 4UI      -0.108000
     15 C14        -22.9760    33.5590     7.7360 ca         1 4UI      -0.103000
     16 C15        -22.8590    32.1880     7.9350 ca         1 4UI      -0.108000
     17 C16        -22.5180    31.6950     9.1850 ca         1 4UI      -0.098000
     18 N2         -15.8510    28.0640    15.3740 ns         1 4UI      -0.368400
     19 C17        -19.9540    32.8310    15.5790 c3         1 4UI       0.147900
     20 C18        -18.8360    31.8360    15.6490 cc         1 4UI      -0.271300
     21 C19        -17.3190    29.9360    15.2460 cc         1 4UI      -0.306600
     22 C20        -16.9890    30.6420    16.3690 cd         1 4UI      -0.097000
     23 C21        -17.8650    31.7290    16.6020 cd         1 4UI      -0.128000
     24 C22        -16.7300    28.7440    14.6110 c          1 4UI       0.640700
     25 O1         -17.0760    28.3940    13.4940 o          1 4UI      -0.569100
     26 S1         -23.4010    31.0260    12.2890 ss         1 4UI      -0.282600
     27 F1         -23.9900    28.1710    17.5730 f          1 4UI      -0.183000
     28 S2         -18.6900    30.6130    14.4560 ss         1 4UI       0.369000
     29 O2         -15.0900    27.0910    14.7980 oh         1 4UI      -0.426100
     30 H1         -24.2620    28.9740    15.1160 ha         1 4UI       0.141000
     31 H2         -22.2240    29.5320    18.8490 ha         1 4UI       0.130000
     32 H3         -20.8810    31.3850    17.9120 ha         1 4UI       0.120000
     33 H4         -20.4110    33.1640    12.5290 hc         1 4UI       0.068700
     34 H5         -22.0380    33.8150    12.7450 hc         1 4UI       0.068700
     35 H6         -21.1720    31.1910    11.4360 h1         1 4UI       0.085700
     36 H7         -22.2420    34.6280    10.8550 ha         1 4UI       0.115500
     37 H8         -22.8290    35.4930     8.6490 ha         1 4UI       0.114500
     38 H9         -23.2360    33.9470     6.7600 ha         1 4UI       0.114000
     39 H10        -23.0240    31.5030     7.1140 ha         1 4UI       0.114500
     40 H11        -22.4170    30.6250     9.3270 ha         1 4UI       0.115500
     41 H12        -15.4610    28.4430    16.2250 hn         1 4UI       0.336500
     42 H13        -19.7440    33.6140    14.8500 h1         1 4UI       0.074200
     43 H14        -20.0580    33.3230    16.5470 h1         1 4UI       0.074200
     44 H21        -15.5060    26.2520    15.0330 ho         1 4UI       0.451000
     45 H15        -16.1600    30.4040    17.0220 ha         1 4UI       0.131000
     46 H16        -17.7880    32.4000    17.4460 ha         1 4UI       0.136000
@<TRIPOS>BOND
     1     1     2 ar  
     2     1     7 ar  
     3     1    30 1   
     4     2     4 ar  
     5     2    27 1   
     6     3     6 1   
     7     3     8 1   
     8     3    19 1   
     9     4     5 ar  
    10     4    31 1   
    11     5     6 ar  
    12     5    32 1   
    13     6     7 ar  
    14     7     9 1   
    15     8     9 2   
    16     8    10 1   
    17     9    26 1   
    18    10    11 1   
    19    10    33 1   
    20    10    34 1   
    21    11    12 1   
    22    11    26 1   
    23    11    35 1   
    24    12    13 ar  
    25    12    17 ar  
    26    13    14 ar  
    27    13    36 1   
    28    14    15 ar  
    29    14    37 1   
    30    15    16 ar  
    31    15    38 1   
    32    16    17 ar  
    33    16    39 1   
    34    17    40 1   
    35    18    24 1   
    36    18    29 1   
    37    18    41 1   
    38    19    20 1   
    39    19    42 1   
    40    19    43 1   
    41    20    23 2   
    42    20    28 1   
    43    21    22 2   
    44    21    24 1   
    45    21    28 1   
    46    22    23 1   
    47    22    45 1   
    48    23    46 1   
    49    24    25 2   
    50    29    44 1   
@<TRIPOS>SUBSTRUCTURE
     1 4UI         1 TEMP              0 ****  ****    0 ROOT
