@<TRIPOS>MOLECULE
4UI
   46    50     1     0     0
SMALL
No Charge or Current Charge


@<TRIPOS>ATOM
      1 C1         -23.7340    29.2480    15.4310 ca         1 4UI      -0.099000
      2 C2         -23.5620    28.8660    16.7770 ca         1 4UI       0.145000
      3 N1         -21.3190    31.8930    14.9740 na         1 4UI      -0.067700
      4 C3         -22.6040    29.5110    17.5980 ca         1 4UI      -0.133000
      5 C4         -21.7980    30.5520    17.0830 ca         1 4UI      -0.093000
      6 C5         -21.9860    30.9240    15.7420 ca         1 4UI      -0.059200
      7 C6         -22.9230    30.2840    14.9580 ca         1 4UI      -0.030800
      8 C7         -21.8470    31.8840    13.6720 cc         1 4UI      -0.097300
      9 C8         -22.8040    30.9270    13.6810 cd         1 4UI      -0.013600
     10 C9         -21.3990    32.5040    12.3940 c5         1 4UI      -0.009200
     11 C10        -21.9600    31.5270    11.2930 c5         1 4UI       0.131600
     12 C11        -22.4110    32.3810    10.1080 ca         1 4UI      -0.074300
     13 C12        -21.6520    32.3980     8.9200 ca         1 4UI      -0.098000
     14 C13        -22.0560    33.1800     7.8240 ca         1 4UI      -0.108000
     15 C14        -23.2250    33.9550     7.9040 ca         1 4UI      -0.103000
     16 C15        -23.9890    33.9450     9.0820 ca         1 4UI      -0.108000
     17 C16        -23.5840    33.1630    10.1780 ca         1 4UI      -0.098000
     18 N2         -15.0910    28.8380    15.8910 ns         1 4UI      -0.368400
     19 C17        -20.1620    32.6520    15.4780 c3         1 4UI       0.147900
     20 C18        -18.9360    31.7990    15.6780 cc         1 4UI      -0.271300
     21 C19        -17.0610    30.1500    15.4480 cc         1 4UI      -0.306600
     22 C20        -17.0300    30.8430    16.6400 cd         1 4UI      -0.097000
     23 C21        -18.0940    31.7750    16.7640 cd         1 4UI      -0.128000
     24 C22        -16.1160    29.1120    14.9940 c          1 4UI       0.640700
     25 O1         -16.2230    28.5320    13.9220 o          1 4UI      -0.569100
     26 S1         -23.3380    30.4840    12.0710 ss         1 4UI      -0.282600
     27 F1         -24.3180    27.8710    17.2890 f          1 4UI      -0.183000
     28 S2         -18.4210    30.6400    14.4500 ss         1 4UI       0.369000
     29 O2         -13.9420    28.0460    15.4990 oh         1 4UI      -0.426100
     30 H1         -24.4630    28.7590    14.7910 ha         1 4UI       0.141000
     31 H2         -22.4870    29.1970    18.6320 ha         1 4UI       0.130000
     32 H3         -21.0560    31.0420    17.7080 ha         1 4UI       0.120000
     33 H4         -20.3090    32.5960    12.3330 hc         1 4UI       0.068700
     34 H5         -21.8120    33.5150    12.3080 hc         1 4UI       0.068700
     35 H6         -21.1670    30.8320    10.9870 h1         1 4UI       0.085700
     36 H7         -20.7440    31.8040     8.8440 ha         1 4UI       0.115500
     37 H8         -21.4630    33.1860     6.9120 ha         1 4UI       0.114500
     38 H9         -23.5380    34.5600     7.0560 ha         1 4UI       0.114000
     39 H10        -24.8950    34.5440     9.1480 ha         1 4UI       0.114500
     40 H11        -24.1840    33.1650    11.0850 ha         1 4UI       0.115500
     41 H12        -14.9600    29.4550    16.6890 hn         1 4UI       0.336500
     42 H13        -19.9320    33.4560    14.7680 h1         1 4UI       0.074200
     43 H14        -20.4430    33.1230    16.4290 h1         1 4UI       0.074200
     44 H21        -13.8630    27.3790    16.2220 ho         1 4UI       0.451000
     45 H15        -16.2840    30.7070    17.4170 ha         1 4UI       0.131000
     46 H16        -18.2290    32.4070    17.6370 ha         1 4UI       0.136000
@<TRIPOS>BOND
     1     1     2 ar  
     2     1     7 ar  
     3     1    30 1   
     4     2     4 ar  
     5     2    27 1   
     6     3     6 1   
     7     3     8 1   
     8     3    19 1   
     9     4     5 ar  
    10     4    31 1   
    11     5     6 ar  
    12     5    32 1   
    13     6     7 ar  
    14     7     9 1   
    15     8     9 2   
    16     8    10 1   
    17     9    26 1   
    18    10    11 1   
    19    10    33 1   
    20    10    34 1   
    21    11    12 1   
    22    11    26 1   
    23    11    35 1   
    24    12    13 ar  
    25    12    17 ar  
    26    13    14 ar  
    27    13    36 1   
    28    14    15 ar  
    29    14    37 1   
    30    15    16 ar  
    31    15    38 1   
    32    16    17 ar  
    33    16    39 1   
    34    17    40 1   
    35    18    24 1   
    36    18    29 1   
    37    18    41 1   
    38    19    20 1   
    39    19    42 1   
    40    19    43 1   
    41    20    23 2   
    42    20    28 1   
    43    21    22 2   
    44    21    24 1   
    45    21    28 1   
    46    22    23 1   
    47    22    45 1   
    48    23    46 1   
    49    24    25 2   
    50    29    44 1   
@<TRIPOS>SUBSTRUCTURE
     1 4UI         1 TEMP              0 ****  ****    0 ROOT
