@<TRIPOS>MOLECULE
4UJ
   32    34     1     0     0
SMALL
No Charge or Current Charge


@<TRIPOS>ATOM
      1 C7           5.2200     2.4010    -0.0220 ca         1 4UJ      -0.077000
      2 C6           5.4280     1.0810    -0.4470 ca         1 4UJ      -0.112000
      3 C1          -2.5350    -1.8370     0.4150 cc         1 4UJ      -0.308000
      4 N1           0.7000     0.0820     0.0440 ns         1 4UJ      -0.467400
      5 C5           4.3840     0.1390    -0.4030 ca         1 4UJ       0.164000
      6 C4           3.0980     0.5160     0.0720 ca         1 4UJ      -0.147600
      7 C3           1.9520    -0.4720     0.1460 c          1 4UJ       0.621700
      8 C2          -0.5230    -0.5230     0.1590 cc         1 4UJ       0.534300
      9 Cl           4.7450    -1.4750    -1.0200 cl         1 4UJ      -0.167000
     10 C8           3.9580     2.7870     0.4490 ca         1 4UJ      -0.114000
     11 C9           2.9060     1.8570     0.4960 ca         1 4UJ      -0.077000
     12 O            2.1170    -1.6650     0.3480 o          1 4UJ      -0.549100
     13 S           -0.8400    -2.2130     0.4890 ss         1 4UJ       0.072600
     14 N           -1.5820     0.2470     0.0100 nd         1 4UJ      -0.708000
     15 C           -2.7450    -0.5000     0.1550 cd         1 4UJ       0.374500
     16 C10         -4.0760     0.1430     0.0290 ca         1 4UJ      -0.119500
     17 C15         -4.1880     1.5280    -0.2410 ca         1 4UJ      -0.086500
     18 C14         -5.4490     2.1390    -0.3600 ca         1 4UJ      -0.118000
     19 C13         -6.6180     1.3790    -0.2120 ca         1 4UJ      -0.103000
     20 C12         -6.5250     0.0050     0.0560 ca         1 4UJ      -0.118000
     21 C11         -5.2650    -0.6090     0.1760 ca         1 4UJ      -0.086500
     22 H1           6.0340     3.1220    -0.0590 ha         1 4UJ       0.123000
     23 H2           6.4040     0.7830    -0.8210 ha         1 4UJ       0.136000
     24 H4           0.6800     1.0700    -0.1490 hn         1 4UJ       0.345500
     25 H5           3.7950     3.8090     0.7850 ha         1 4UJ       0.125000
     26 H6           1.9500     2.1890     0.8940 ha         1 4UJ       0.125000
     27 H7          -3.2990     2.1430    -0.3600 ha         1 4UJ       0.120500
     28 H8          -5.5170     3.2050    -0.5680 ha         1 4UJ       0.112000
     29 H9          -7.5930     1.8520    -0.3040 ha         1 4UJ       0.111000
     30 H10         -7.4300    -0.5870     0.1720 ha         1 4UJ       0.112000
     31 H11         -5.2290    -1.6750     0.3840 ha         1 4UJ       0.120500
     32 H3          -3.2550    -2.6270     0.5690 h4         1 4UJ       0.160000
@<TRIPOS>BOND
     1     1     2 ar  
     2     1    10 ar  
     3     1    22 1   
     4     2     5 ar  
     5     2    23 1   
     6     3    13 1   
     7     3    15 2   
     8     3    32 1   
     9     4     7 1   
    10     4     8 1   
    11     4    24 1   
    12     5     6 ar  
    13     5     9 1   
    14     6     7 1   
    15     6    11 ar  
    16     7    12 2   
    17     8    13 1   
    18     8    14 2   
    19    10    11 ar  
    20    10    25 1   
    21    11    26 1   
    22    14    15 1   
    23    15    16 1   
    24    16    17 ar  
    25    16    21 ar  
    26    17    18 ar  
    27    17    27 1   
    28    18    19 ar  
    29    18    28 1   
    30    19    20 ar  
    31    19    29 1   
    32    20    21 ar  
    33    20    30 1   
    34    21    31 1   
@<TRIPOS>SUBSTRUCTURE
     1 4UJ         1 TEMP              0 ****  ****    0 ROOT
