@<TRIPOS>MOLECULE
4UJ
   32    34     1     0     0
SMALL
abcg2


@<TRIPOS>ATOM
      1 C7           5.3140     2.2260    -0.0170 ca         1 4UJ      -0.077000
      2 C6           5.3050     1.0040    -0.6750 ca         1 4UJ      -0.112000
      3 C1          -2.4380    -1.7020     0.5630 cc         1 4UJ      -0.308000
      4 N1           0.6750     0.3380     0.0490 ns         1 4UJ      -0.467400
      5 C5           4.1860     0.1910    -0.5980 ca         1 4UJ       0.164000
      6 C4           3.0590     0.5930     0.1170 ca         1 4UJ      -0.147600
      7 C3           1.8650    -0.2840     0.2630 c          1 4UJ       0.621700
      8 C2          -0.5500    -0.2680     0.1950 cc         1 4UJ       0.534300
      9 CL           4.2050    -1.3060    -1.4620 cl         1 4UJ      -0.167000
     10 C8           4.2040     2.6400     0.7020 ca         1 4UJ      -0.114000
     11 C9           3.0830     1.8290     0.7610 ca         1 4UJ      -0.077000
     12 O            1.9260    -1.4570     0.5720 o          1 4UJ      -0.549100
     13 S           -0.7360    -1.9230     0.6590 ss         1 4UJ       0.072600
     14 N           -1.6490     0.3760    -0.0130 nd         1 4UJ      -0.708000
     15 C           -2.7410    -0.4280     0.1920 cd         1 4UJ       0.374500
     16 C10         -4.0870     0.1320     0.0070 ca         1 4UJ      -0.119500
     17 C15         -4.2500     1.4820    -0.3040 ca         1 4UJ      -0.086500
     18 C14         -5.5180     2.0200    -0.4770 ca         1 4UJ      -0.118000
     19 C13         -6.6430     1.2200    -0.3420 ca         1 4UJ      -0.103000
     20 C12         -6.4910    -0.1270    -0.0320 ca         1 4UJ      -0.118000
     21 C11         -5.2260    -0.6650     0.1390 ca         1 4UJ      -0.086500
     22 H1           6.1930     2.8530    -0.0730 ha         1 4UJ       0.123000
     23 H2           6.1650     0.6860    -1.2490 ha         1 4UJ       0.136000
     24 H4           0.6550     1.2960    -0.2740 hn         1 4UJ       0.345500
     25 H5           4.2100     3.5900     1.2190 ha         1 4UJ       0.125000
     26 H6           2.2220     2.1500     1.3340 ha         1 4UJ       0.125000
     27 H7          -3.3800     2.1160    -0.4100 ha         1 4UJ       0.120500
     28 H8          -5.6240     3.0700    -0.7160 ha         1 4UJ       0.112000
     29 H9          -7.6310     1.6390    -0.4780 ha         1 4UJ       0.111000
     30 H10         -7.3610    -0.7610     0.0750 ha         1 4UJ       0.112000
     31 H11         -5.1330    -1.7190     0.3700 ha         1 4UJ       0.120500
     32 H3          -3.1050    -2.5190     0.7880 h4         1 4UJ       0.160000
@<TRIPOS>BOND
     1     1     2 ar  
     2     1    10 ar  
     3     1    22 1   
     4     2     5 ar  
     5     2    23 1   
     6     3    13 1   
     7     3    15 2   
     8     3    32 1   
     9     4     7 1   
    10     4     8 1   
    11     4    24 1   
    12     5     6 ar  
    13     5     9 1   
    14     6     7 1   
    15     6    11 ar  
    16     7    12 2   
    17     8    13 1   
    18     8    14 2   
    19    10    11 ar  
    20    10    25 1   
    21    11    26 1   
    22    14    15 1   
    23    15    16 1   
    24    16    17 ar  
    25    16    21 ar  
    26    17    18 ar  
    27    17    27 1   
    28    18    19 ar  
    29    18    28 1   
    30    19    20 ar  
    31    19    29 1   
    32    20    21 ar  
    33    20    30 1   
    34    21    31 1   
@<TRIPOS>SUBSTRUCTURE
     1 4UJ         1 TEMP              0 ****  ****    0 ROOT
