@<TRIPOS>MOLECULE
4UK
   52    54     1     0     0
SMALL
No Charge or Current Charge


@<TRIPOS>ATOM
      1 O1          -6.5380    -2.1070     0.3900 o          1 4UK      -0.604100
      2 C7           6.9750    -0.7110    -0.3990 ca         1 4UK      -0.107000
      3 C6           6.7390    -2.0790    -0.6020 ca         1 4UK       0.118000
      4 C1           3.4960     1.9790     0.1610 cc         1 4UK      -0.205000
      5 N1           2.1820     2.3860     0.2780 na         1 4UK      -0.294500
      6 C5           5.4250    -2.5680    -0.6240 ca         1 4UK      -0.107000
      7 C4           4.3430    -1.6880    -0.4430 ca         1 4UK      -0.089000
      8 C3           4.5640    -0.3060    -0.2380 ca         1 4UK      -0.096500
      9 C2           3.4260     0.6210    -0.0470 cd         1 4UK       0.306500
     10 F1          -2.7810     5.0250     0.1810 f          1 4UK      -0.110500
     11 F           -2.2640     3.9840    -1.6690 f          1 4UK      -0.110500
     12 C11         -3.3800     2.7070     0.0340 ca         1 4UK      -0.121300
     13 C12         -4.7110     2.2660     0.1860 ca         1 4UK      -0.090000
     14 C13         -5.0030     1.0290     0.7750 ca         1 4UK      -0.072000
     15 C14         -3.9650     0.2020     1.2270 ca         1 4UK      -0.097300
     16 C16         -4.2800    -1.1420     1.8680 c3         1 4UK       0.143300
     17 N3          -4.3150    -2.2120     0.8700 ns         1 4UK      -0.507900
     18 C17         -5.4420    -2.6100     0.1870 c          1 4UK       0.601100
     19 C18         -5.2160    -3.7330    -0.8470 c3         1 4UK      -0.137700
     20 C20         -6.0160    -5.0050    -0.4780 c3         1 4UK      -0.083600
     21 C19         -5.5330    -3.2440    -2.2800 c3         1 4UK      -0.083600
     22 C15         -2.6320     0.6250     1.0810 ca         1 4UK      -0.089000
     23 C10         -2.3110     1.8750     0.4900 ca         1 4UK      -0.109600
     24 C9          -0.8460     2.2730     0.3820 c          1 4UK       0.627700
     25 O           -0.4500     3.4210     0.5280 o          1 4UK      -0.573100
     26 N2           0.0300     1.2350     0.1870 ns         1 4UK      -0.472400
     27 C            1.3890     1.2830     0.1380 cc         1 4UK       0.530400
     28 N            2.1080     0.2020    -0.0580 nd         1 4UK      -0.719000
     29 C8           5.8940     0.1710    -0.2180 ca         1 4UK      -0.089000
     30 Cl           8.0920    -3.1800    -0.8280 cl         1 4UK      -0.209000
     31 H1           7.9940    -0.3340    -0.3820 ha         1 4UK       0.127000
     32 H2           4.3400     2.6530     0.2310 h4         1 4UK       0.164000
     33 H3           1.8290     3.3220     0.4370 hn         1 4UK       0.387000
     34 H4           5.2440    -3.6280    -0.7810 ha         1 4UK       0.127000
     35 H5           3.3320    -2.0870    -0.4640 ha         1 4UK       0.123500
     36 H6          -4.1220     4.3770    -1.1210 h2         1 4UK       0.062700
     37 H7          -5.5340     2.8860    -0.1640 ha         1 4UK       0.125000
     38 H8          -6.0390     0.7110     0.8760 ha         1 4UK       0.143000
     39 H9          -3.5150    -1.3830     2.6170 h1         1 4UK       0.070200
     40 H10         -5.2450    -1.0910     2.3910 h1         1 4UK       0.070200
     41 H11         -3.4490    -2.6830     0.6360 hn         1 4UK       0.314500
     42 H12         -4.1520    -4.0030    -0.8270 hc         1 4UK       0.047700
     43 H13         -7.0950    -4.8090    -0.4980 hc         1 4UK       0.043700
     44 H14         -5.8020    -5.8160    -1.1850 hc         1 4UK       0.043700
     45 H15         -5.7480    -5.3500     0.5280 hc         1 4UK       0.043700
     46 H16         -4.9290    -2.3620    -2.5290 hc         1 4UK       0.043700
     47 H17         -5.3100    -4.0260    -3.0160 hc         1 4UK       0.043700
     48 H18         -6.5910    -2.9720    -2.3770 hc         1 4UK       0.043700
     49 H19         -1.8440    -0.0220     1.4620 ha         1 4UK       0.123000
     50 H20         -0.3900     0.3290     0.0580 hn         1 4UK       0.352500
     51 H22          6.1020     1.2270    -0.0620 ha         1 4UK       0.123500
     52 C21         -3.1770     4.0540    -0.6730 c3         1 4UK       0.228600
@<TRIPOS>BOND
     1     1    18 2   
     2     2     3 ar  
     3     2    29 ar  
     4     2    31 1   
     5     3     6 ar  
     6     3    30 1   
     7     4     5 1   
     8     4     9 2   
     9     4    32 1   
    10     5    27 1   
    11     5    33 1   
    12     6     7 ar  
    13     6    34 1   
    14     7     8 ar  
    15     7    35 1   
    16     8     9 1   
    17     8    29 ar  
    18     9    28 1   
    19    10    52 1   
    20    11    52 1   
    21    12    13 ar  
    22    12    23 ar  
    23    12    52 1   
    24    13    14 ar  
    25    13    37 1   
    26    14    15 ar  
    27    14    38 1   
    28    15    16 1   
    29    15    22 ar  
    30    16    17 1   
    31    16    39 1   
    32    16    40 1   
    33    17    18 1   
    34    17    41 1   
    35    18    19 1   
    36    19    20 1   
    37    19    21 1   
    38    19    42 1   
    39    20    43 1   
    40    20    44 1   
    41    20    45 1   
    42    21    46 1   
    43    21    47 1   
    44    21    48 1   
    45    22    23 ar  
    46    22    49 1   
    47    23    24 1   
    48    24    25 2   
    49    24    26 1   
    50    26    27 1   
    51    26    50 1   
    52    27    28 2   
    53    29    51 1   
    54    36    52 1   
@<TRIPOS>SUBSTRUCTURE
     1 4UK         1 TEMP              0 ****  ****    0 ROOT
