@<TRIPOS>MOLECULE
4UK
   52    54     1     0     0
SMALL
bcc


@<TRIPOS>ATOM
      1 O1          -6.7790    -2.0800     0.7580 o          1 4UK      -0.604100
      2 C7           7.2160    -0.3020    -0.2610 ca         1 4UK      -0.125000
      3 C6           7.0550    -1.5560    -0.8310 ca         1 4UK       0.026400
      4 C1           3.5490     2.0060     0.6840 cc         1 4UK      -0.237600
      5 N1           2.2150     2.2900     0.7730 na         1 4UK      -0.294900
      6 C5           5.7910    -2.0610    -1.0890 ca         1 4UK      -0.125000
      7 C4           4.6780    -1.2970    -0.7720 ca         1 4UK      -0.107000
      8 C3           4.8090    -0.0320    -0.1990 ca         1 4UK      -0.096500
      9 C2           3.6240     0.7580     0.1250 cd         1 4UK       0.371800
     10 F1          -2.5950     4.6610    -0.2190 f          1 4UK      -0.231800
     11 F           -1.5550     3.4470    -1.7090 f          1 4UK      -0.231800
     12 C11         -3.0820     2.3520    -0.2900 ca         1 4UK      -0.121300
     13 C12         -4.3940     1.9030    -0.3470 ca         1 4UK      -0.108000
     14 C13         -4.7880     0.7540     0.3200 ca         1 4UK      -0.090000
     15 C14         -3.8630     0.0150     1.0470 ca         1 4UK      -0.097300
     16 C16         -4.2660    -1.2570     1.7520 c3         1 4UK       0.143300
     17 N3          -4.5370    -2.3350     0.8280 ns         1 4UK      -0.574900
     18 C17         -5.7650    -2.6520     0.3800 c          1 4UK       0.668100
     19 C18         -5.8110    -3.7650    -0.6510 c3         1 4UK      -0.137700
     20 C20         -6.8190    -4.8310    -0.2380 c3         1 4UK      -0.083600
     21 C19         -6.1660    -3.1650    -2.0120 c3         1 4UK      -0.083600
     22 C15         -2.5450     0.4540     1.0880 ca         1 4UK      -0.107000
     23 C10         -2.1460     1.6150     0.4370 ca         1 4UK      -0.109600
     24 C9          -0.7240     2.0520     0.5860 c          1 4UK       0.694700
     25 O           -0.4080     3.1300     1.0540 o          1 4UK      -0.573100
     26 N2           0.1790     1.1200     0.1920 ns         1 4UK      -0.539400
     27 C            1.5530     1.2280     0.2790 cc         1 4UK       0.530400
     28 N            2.3600     0.2860    -0.1220 nd         1 4UK      -0.719000
     29 C8           6.0960     0.4490     0.0510 ca         1 4UK      -0.107000
     30 CL           8.4540    -2.5030    -1.2210 cl         1 4UK      -0.117400
     31 H1           8.2040     0.0900    -0.0610 ha         1 4UK       0.145000
     32 H2           4.2970     2.7050     1.0160 h4         1 4UK       0.182000
     33 H3           1.7980     3.1330     1.1360 hn         1 4UK       0.336700
     34 H4           5.6680    -3.0390    -1.5340 ha         1 4UK       0.145000
     35 H5           3.6930    -1.6950    -0.9760 ha         1 4UK       0.141500
     36 H6          -3.5070     3.8430    -1.7880 h2         1 4UK       0.062700
     37 H7          -5.1220     2.4550    -0.9290 ha         1 4UK       0.143000
     38 H8          -5.8210     0.4330     0.2670 ha         1 4UK       0.161000
     39 H9          -3.4690    -1.5740     2.4250 h1         1 4UK       0.070200
     40 H10         -5.1530    -1.0870     2.3610 h1         1 4UK       0.070200
     41 H11         -3.7440    -2.8190     0.4410 hn         1 4UK       0.314500
     42 H12         -4.8230    -4.2290    -0.7260 hc         1 4UK       0.047700
     43 H13         -7.8240    -4.4140    -0.1670 hc         1 4UK       0.043700
     44 H14         -6.8420    -5.6330    -0.9770 hc         1 4UK       0.043700
     45 H15         -6.5660    -5.2740     0.7260 hc         1 4UK       0.043700
     46 H16         -5.4540    -2.3970    -2.3160 hc         1 4UK       0.043700
     47 H17         -6.1640    -3.9410    -2.7770 hc         1 4UK       0.043700
     48 H18         -7.1600    -2.7160    -1.9920 hc         1 4UK       0.043700
     49 H19         -1.8190    -0.1150     1.6590 ha         1 4UK       0.141000
     50 H20         -0.1500     0.2660    -0.2340 hn         1 4UK       0.352500
     51 H22          6.2410     1.4250     0.4960 ha         1 4UK       0.141500
     52 C21         -2.7400     3.5940    -1.0530 c3         1 4UK       0.471200
@<TRIPOS>BOND
     1     1    18 2   
     2     2     3 ar  
     3     2    29 ar  
     4     2    31 1   
     5     3     6 ar  
     6     3    30 1   
     7     4     5 1   
     8     4     9 2   
     9     4    32 1   
    10     5    27 1   
    11     5    33 1   
    12     6     7 ar  
    13     6    34 1   
    14     7     8 ar  
    15     7    35 1   
    16     8     9 1   
    17     8    29 ar  
    18     9    28 1   
    19    10    52 1   
    20    11    52 1   
    21    12    13 ar  
    22    12    23 ar  
    23    12    52 1   
    24    13    14 ar  
    25    13    37 1   
    26    14    15 ar  
    27    14    38 1   
    28    15    16 1   
    29    15    22 ar  
    30    16    17 1   
    31    16    39 1   
    32    16    40 1   
    33    17    18 1   
    34    17    41 1   
    35    18    19 1   
    36    19    20 1   
    37    19    21 1   
    38    19    42 1   
    39    20    43 1   
    40    20    44 1   
    41    20    45 1   
    42    21    46 1   
    43    21    47 1   
    44    21    48 1   
    45    22    23 ar  
    46    22    49 1   
    47    23    24 1   
    48    24    25 2   
    49    24    26 1   
    50    26    27 1   
    51    26    50 1   
    52    27    28 2   
    53    29    51 1   
    54    36    52 1   
@<TRIPOS>SUBSTRUCTURE
     1 4UK         1 TEMP              0 ****  ****    0 ROOT
