@<TRIPOS>MOLECULE
4UL
   57    59     1     0     0
SMALL
abcg2


@<TRIPOS>ATOM
      1 O1           3.9970     3.2260     0.6770 o          1 4UL      -0.599100
      2 C7          -5.9960     1.3920     0.5140 ca         1 4UL      -0.203300
      3 C6          -5.9960     0.2560    -0.2840 ca         1 4UL      -0.063500
      4 C1          -1.9880    -1.4060    -1.4280 cc         1 4UL      -0.158300
      5 N1          -0.6650    -1.7000    -1.2320 na         1 4UL      -0.299500
      6 C5          -4.8050    -0.3880    -0.5790 ca         1 4UL      -0.107000
      7 C4          -3.5860     0.0910    -0.0950 ca         1 4UL      -0.061500
      8 C3          -2.3150    -0.5570    -0.3960 cd         1 4UL       0.295500
      9 C2          -2.7380    -1.9560    -2.5870 c3         1 4UL      -0.023800
     10 F4           2.1900    -4.1050     1.4480 f          1 4UL      -0.108500
     11 F3           3.7560    -4.7110     0.0500 f          1 4UL      -0.108500
     12 C13          4.0460    -2.6750     1.2000 ca         1 4UL       0.310300
     13 N3           5.2210    -2.5130     1.7830 nb         1 4UL      -0.653000
     14 C14          5.7600    -1.3020     1.8180 ca         1 4UL       0.360900
     15 C15          5.1400    -0.1720     1.3040 ca         1 4UL      -0.144300
     16 C17          5.7910     1.1820     1.4120 c3         1 4UL       0.148300
     17 N4           5.7700     1.9230     0.1760 ns         1 4UL      -0.511900
     18 C18          4.8790     2.8940    -0.1030 c          1 4UL       0.599100
     19 C19          5.0350     3.5470    -1.4630 c3         1 4UL      -0.135700
     20 C21          3.7910     3.2690    -2.3050 c3         1 4UL      -0.084100
     21 C20          5.2710     5.0460    -1.2970 c3         1 4UL      -0.084100
     22 C16          3.8990    -0.3490     0.7060 ca         1 4UL      -0.039000
     23 C12          3.3390    -1.6150     0.6340 ca         1 4UL      -0.164600
     24 C11          2.0530    -1.8080    -0.1010 c          1 4UL       0.633700
     25 O            1.9680    -2.5260    -1.0800 o          1 4UL      -0.575100
     26 N2           1.0210    -1.0840     0.3910 ns         1 4UL      -0.466400
     27 C           -0.2580    -1.0360    -0.1320 cc         1 4UL       0.531400
     28 N           -1.2140    -0.3340     0.3980 nd         1 4UL      -0.706000
     29 C9          -3.6060     1.2280     0.7220 ca         1 4UL      -0.107000
     30 C8          -4.7910     1.8700     1.0220 ca         1 4UL      -0.063500
     31 C10         -7.2640     2.0920     0.8750 c3         1 4UL       0.357300
     32 F2          -7.5900     1.8990     2.1640 f          1 4UL      -0.116000
     33 F1          -7.1680     3.4190     0.7080 f          1 4UL      -0.116000
     34 F           -8.3090     1.6810     0.1490 f          1 4UL      -0.116000
     35 H1          -6.9180    -0.1500    -0.6780 ha         1 4UL       0.127000
     36 H2          -0.0930    -2.3060    -1.8000 hn         1 4UL       0.384000
     37 H3          -4.8450    -1.2870    -1.1780 ha         1 4UL       0.128000
     38 H4          -3.2870    -2.8630    -2.3260 hc         1 4UL       0.052700
     39 H5          -3.4560    -1.2330    -2.9710 hc         1 4UL       0.052700
     40 H6          -2.0600    -2.2080    -3.4020 hc         1 4UL       0.052700
     41 H7           4.0220    -4.6600     2.0290 h2         1 4UL       0.086700
     42 H8           6.7340    -1.2230     2.2890 h4         1 4UL       0.028100
     43 H9           5.2850     1.7700     2.1790 h1         1 4UL       0.071700
     44 H10          6.8250     1.0620     1.7360 h1         1 4UL       0.071700
     45 H11          6.4530     1.6780    -0.5220 hn         1 4UL       0.317500
     46 H12          5.8990     3.1150    -1.9740 hc         1 4UL       0.047700
     47 H13          2.9030     3.7130    -1.8530 hc         1 4UL       0.044867
     48 H14          3.9100     3.6960    -3.3020 hc         1 4UL       0.044867
     49 H15          3.6140     2.1990    -2.4230 hc         1 4UL       0.044867
     50 H16          6.1690     5.2510    -0.7120 hc         1 4UL       0.044867
     51 H17          5.3990     5.5150    -2.2730 hc         1 4UL       0.044867
     52 H18          4.4270     5.5250    -0.8020 hc         1 4UL       0.044867
     53 H19          3.3700     0.4980     0.2860 ha         1 4UL       0.144000
     54 H20          1.1520    -0.5480     1.2370 hn         1 4UL       0.358500
     55 H22         -2.6780     1.6160     1.1180 ha         1 4UL       0.128000
     56 H23         -4.7650     2.7500     1.6530 ha         1 4UL       0.127000
     57 C22          3.5330    -4.0880     1.2390 c3         1 4UL       0.133000
@<TRIPOS>BOND
     1     1    18 2   
     2     2     3 ar  
     3     2    30 ar  
     4     2    31 1   
     5     3     6 ar  
     6     3    35 1   
     7     4     5 1   
     8     4     8 2   
     9     4     9 1   
    10     5    27 1   
    11     5    36 1   
    12     6     7 ar  
    13     6    37 1   
    14     7     8 1   
    15     7    29 ar  
    16     8    28 1   
    17     9    38 1   
    18     9    39 1   
    19     9    40 1   
    20    10    57 1   
    21    11    57 1   
    22    12    13 ar  
    23    12    23 ar  
    24    12    57 1   
    25    13    14 ar  
    26    14    15 ar  
    27    14    42 1   
    28    15    16 1   
    29    15    22 ar  
    30    16    17 1   
    31    16    43 1   
    32    16    44 1   
    33    17    18 1   
    34    17    45 1   
    35    18    19 1   
    36    19    20 1   
    37    19    21 1   
    38    19    46 1   
    39    20    47 1   
    40    20    48 1   
    41    20    49 1   
    42    21    50 1   
    43    21    51 1   
    44    21    52 1   
    45    22    23 ar  
    46    22    53 1   
    47    23    24 1   
    48    24    25 2   
    49    24    26 1   
    50    26    27 1   
    51    26    54 1   
    52    27    28 2   
    53    29    30 ar  
    54    29    55 1   
    55    30    56 1   
    56    31    32 1   
    57    31    33 1   
    58    31    34 1   
    59    41    57 1   
@<TRIPOS>SUBSTRUCTURE
     1 4UL         1 TEMP              0 ****  ****    0 ROOT
