@<TRIPOS>MOLECULE
4UL
   57    59     1     0     0
SMALL
No Charge or Current Charge


@<TRIPOS>ATOM
      1 O1           3.5520     3.1180     0.2100 o          1 4UL      -0.599100
      2 C7          -6.0210     1.6080     0.5700 ca         1 4UL      -0.203300
      3 C6          -6.0620     0.5780    -0.3890 ca         1 4UL      -0.063500
      4 C1          -2.2050    -1.7110    -1.2470 cc         1 4UL      -0.158300
      5 N1          -0.8740    -2.0350    -1.0840 na         1 4UL      -0.299500
      6 C5          -4.9100    -0.1670    -0.6950 ca         1 4UL      -0.107000
      7 C4          -3.6770     0.0880    -0.0500 ca         1 4UL      -0.061500
      8 C3          -2.4290    -0.6790    -0.3430 cd         1 4UL       0.295500
      9 C2          -3.0890    -2.4200    -2.2410 c3         1 4UL      -0.023800
     10 F4           2.9310    -4.6440     1.1300 f          1 4UL      -0.108500
     11 F3           4.1290    -4.5360    -0.6960 f          1 4UL      -0.108500
     12 C13          4.2940    -2.6790     0.8270 ca         1 4UL       0.310300
     13 N3           5.5010    -2.3670     1.3660 nb         1 4UL      -0.653000
     14 C14          5.7800    -1.0780     1.6510 ca         1 4UL       0.360900
     15 C15          4.8730    -0.0330     1.4250 ca         1 4UL      -0.144300
     16 C17          5.2470     1.4010     1.7600 c3         1 4UL       0.148300
     17 N4           5.5870     2.1570     0.5530 ns         1 4UL      -0.511900
     18 C18          4.7120     2.9590    -0.1450 c          1 4UL       0.599100
     19 C19          5.3010     3.6310    -1.4020 c3         1 4UL      -0.135700
     20 C21          4.5790     3.1500    -2.6830 c3         1 4UL      -0.084100
     21 C20          5.2860     5.1730    -1.2730 c3         1 4UL      -0.084100
     22 C16          3.6190    -0.3410     0.8740 ca         1 4UL      -0.039000
     23 C12          3.3080    -1.6870     0.5600 ca         1 4UL      -0.164600
     24 C11          1.9710    -2.0180    -0.0550 c          1 4UL       0.633700
     25 O            1.8240    -2.8860    -0.9010 o          1 4UL      -0.575100
     26 N2           0.9300    -1.2140     0.3350 ns         1 4UL      -0.466400
     27 C           -0.3510    -1.2240    -0.1260 cc         1 4UL       0.531400
     28 N           -1.2550    -0.3990     0.3400 nd         1 4UL      -0.706000
     29 C9          -3.6530     1.1190     0.9200 ca         1 4UL      -0.107000
     30 C8          -4.8030     1.8650     1.2280 ca         1 4UL      -0.063500
     31 C10         -7.2820     2.4120     0.9100 c3         1 4UL       0.357300
     32 F2          -7.9850     1.8250     1.9040 f          1 4UL      -0.116000
     33 F1          -6.9960     3.6700     1.3180 f          1 4UL      -0.116000
     34 F           -8.1160     2.5320    -0.1480 f          1 4UL      -0.116000
     35 H1          -6.9920     0.3440    -0.9030 ha         1 4UL       0.127000
     36 H2          -0.3440    -2.7460    -1.5730 hn         1 4UL       0.384000
     37 H3          -5.0070    -0.9450    -1.4390 ha         1 4UL       0.128000
     38 H4          -3.9180    -2.9330    -1.7380 hc         1 4UL       0.052700
     39 H5          -3.5000    -1.7180    -2.9760 hc         1 4UL       0.052700
     40 H6          -2.5280    -3.1800    -2.7980 hc         1 4UL       0.052700
     41 H7           4.9080    -4.7260     1.1140 h2         1 4UL       0.086700
     42 H8           6.7640    -0.8810     2.0760 h4         1 4UL       0.028100
     43 H9           4.4150     1.8900     2.2850 h1         1 4UL       0.071700
     44 H10          6.1130     1.4140     2.4360 h1         1 4UL       0.071700
     45 H11          6.5290     2.0850     0.1870 hn         1 4UL       0.317500
     46 H12          6.3510     3.3250    -1.4900 hc         1 4UL       0.047700
     47 H13          3.5210     3.4400    -2.6700 hc         1 4UL       0.044867
     48 H14          5.0430     3.5840    -3.5770 hc         1 4UL       0.044867
     49 H15          4.6330     2.0570    -2.7680 hc         1 4UL       0.044867
     50 H16          5.8330     5.4910    -0.3770 hc         1 4UL       0.044867
     51 H17          5.7610     5.6410    -2.1440 hc         1 4UL       0.044867
     52 H18          4.2580     5.5510    -1.1990 hc         1 4UL       0.044867
     53 H19          2.9180     0.4650     0.6670 ha         1 4UL       0.144000
     54 H20          1.1370    -0.5420     1.0560 hn         1 4UL       0.358500
     55 H22         -2.7340     1.3550     1.4510 ha         1 4UL       0.128000
     56 H23         -4.7390     2.6450     1.9850 ha         1 4UL       0.127000
     57 C22          4.0970    -4.1880     0.6120 c3         1 4UL       0.133000
@<TRIPOS>BOND
     1     1    18 2   
     2     2     3 ar  
     3     2    30 ar  
     4     2    31 1   
     5     3     6 ar  
     6     3    35 1   
     7     4     5 1   
     8     4     8 2   
     9     4     9 1   
    10     5    27 1   
    11     5    36 1   
    12     6     7 ar  
    13     6    37 1   
    14     7     8 1   
    15     7    29 ar  
    16     8    28 1   
    17     9    38 1   
    18     9    39 1   
    19     9    40 1   
    20    10    57 1   
    21    11    57 1   
    22    12    13 ar  
    23    12    23 ar  
    24    12    57 1   
    25    13    14 ar  
    26    14    15 ar  
    27    14    42 1   
    28    15    16 1   
    29    15    22 ar  
    30    16    17 1   
    31    16    43 1   
    32    16    44 1   
    33    17    18 1   
    34    17    45 1   
    35    18    19 1   
    36    19    20 1   
    37    19    21 1   
    38    19    46 1   
    39    20    47 1   
    40    20    48 1   
    41    20    49 1   
    42    21    50 1   
    43    21    51 1   
    44    21    52 1   
    45    22    23 ar  
    46    22    53 1   
    47    23    24 1   
    48    24    25 2   
    49    24    26 1   
    50    26    27 1   
    51    26    54 1   
    52    27    28 2   
    53    29    30 ar  
    54    29    55 1   
    55    30    56 1   
    56    31    32 1   
    57    31    33 1   
    58    31    34 1   
    59    41    57 1   
@<TRIPOS>SUBSTRUCTURE
     1 4UL         1 TEMP              0 ****  ****    0 ROOT
