@<TRIPOS>MOLECULE
4UM
   29    30     1     0     0
SMALL
No Charge or Current Charge


@<TRIPOS>ATOM
      1 C10          2.9360    -0.8470    -0.0200 c          1 4UM       0.630300
      2 C11         -4.5530    -0.2810    -0.0370 c          1 4UM       0.623700
      3 C16          5.2230    -0.0860     0.0040 c3         1 4UM       0.171600
      4 C17          5.9710     1.2560     0.0340 c3         1 4UM      -0.099100
      5 C1          -0.7590    -0.5140    -0.0270 ca         1 4UM      -0.140800
      6 C2          -0.3730     0.7940    -0.0000 ca         1 4UM      -0.015200
      7 C3           0.4330    -1.3090    -0.0380 cc         1 4UM      -0.138200
      8 C4          -2.1060    -0.8980    -0.0400 ca         1 4UM       0.021000
      9 N5           1.0080     0.9040     0.0070 na         1 4UM      -0.192700
     10 C6          -1.3180     1.8260     0.0160 ca         1 4UM      -0.144000
     11 C7           1.5090    -0.4250    -0.0170 cd         1 4UM      -0.142300
     12 C8          -3.0970     0.1170    -0.0240 ca         1 4UM      -0.193600
     13 C9          -2.6870     1.4820     0.0050 ca         1 4UM      -0.056000
     14 O12          3.8150     0.2070     0.0040 os         1 4UM      -0.464100
     15 O13          3.2890    -2.0190    -0.0410 o          1 4UM      -0.473000
     16 N14         -5.4840     0.6960    -0.0220 nt         1 4UM      -0.607000
     17 O15         -4.9170    -1.4450    -0.0610 o          1 4UM      -0.615100
     18 H1           5.5080    -0.6440    -0.8980 h1         1 4UM       0.052700
     19 H2           5.5010    -0.6790     0.8850 h1         1 4UM       0.052700
     20 H3           7.0540     1.0870     0.0340 hc         1 4UM       0.048033
     21 H4           5.7180     1.8590    -0.8470 hc         1 4UM       0.048033
     22 H5           5.7110     1.8240     0.9350 hc         1 4UM       0.048033
     23 H6           0.5030    -2.3960    -0.0590 ha         1 4UM       0.225000
     24 H7          -2.3750    -1.9520    -0.0620 ha         1 4UM       0.146000
     25 H8           1.5560     1.7580     0.0260 hn         1 4UM       0.366000
     26 H9          -1.0070     2.8680     0.0380 ha         1 4UM       0.119000
     27 H10         -3.4180     2.2860     0.0180 ha         1 4UM       0.103000
     28 H11         -5.2030     1.6630    -0.0020 hn         1 4UM       0.313000
     29 H12         -6.4600     0.4430    -0.0300 hn         1 4UM       0.313000
@<TRIPOS>BOND
     1     1    11 1   
     2     1    14 1   
     3     1    15 2   
     4     2    12 1   
     5     2    16 1   
     6     2    17 2   
     7     3     4 1   
     8     3    14 1   
     9     3    18 1   
    10     3    19 1   
    11     4    20 1   
    12     4    21 1   
    13     4    22 1   
    14     5     6 ar  
    15     5     7 1   
    16     5     8 ar  
    17     6     9 1   
    18     6    10 ar  
    19     7    11 2   
    20     7    23 1   
    21     8    12 ar  
    22     8    24 1   
    23     9    11 1   
    24     9    25 1   
    25    10    13 ar  
    26    10    26 1   
    27    12    13 ar  
    28    13    27 1   
    29    16    28 1   
    30    16    29 1   
@<TRIPOS>SUBSTRUCTURE
     1 4UM         1 TEMP              0 ****  ****    0 ROOT
