@<TRIPOS>MOLECULE
4UM
   29    30     1     0     0
SMALL
abcg2


@<TRIPOS>ATOM
      1 C10          2.9230    -0.9020    -0.0440 c          1 4UM       0.630300
      2 C11         -4.4660    -0.2310    -0.0060 c          1 4UM       0.623700
      3 C16          5.1250    -0.0220    -0.0280 c3         1 4UM       0.171600
      4 C17          5.7700     1.3350     0.1030 c3         1 4UM      -0.099100
      5 C1          -0.7350    -0.6040    -0.0250 ca         1 4UM      -0.140800
      6 C2          -0.3080     0.7440    -0.0340 ca         1 4UM      -0.015200
      7 C3           0.4390    -1.4070    -0.0280 cc         1 4UM      -0.138200
      8 C4          -2.1010    -0.8930    -0.0150 ca         1 4UM       0.021000
      9 N5           1.0460     0.7500    -0.0390 na         1 4UM      -0.192700
     10 C6          -1.2220     1.8000    -0.0390 ca         1 4UM      -0.144000
     11 C7           1.5020    -0.5460    -0.0370 cd         1 4UM      -0.142300
     12 C8          -3.0170     0.1420    -0.0180 ca         1 4UM      -0.193600
     13 C9          -2.5600     1.4820    -0.0320 ca         1 4UM      -0.056000
     14 O12          3.6990     0.1680    -0.0150 os         1 4UM      -0.464100
     15 O13          3.3190    -2.0420    -0.0720 o          1 4UM      -0.473000
     16 N14         -5.3630     0.7670     0.0060 nt         1 4UM      -0.607000
     17 O15         -4.8120    -1.4070    -0.0080 o          1 4UM      -0.615100
     18 H1           5.4150    -0.5060    -0.9630 h1         1 4UM       0.052700
     19 H2           5.4150    -0.6740     0.7970 h1         1 4UM       0.052700
     20 H3           6.8530     1.2140     0.0880 hc         1 4UM       0.048033
     21 H4           5.4970     1.9930    -0.7220 hc         1 4UM       0.048033
     22 H5           5.5000     1.8180     1.0410 hc         1 4UM       0.048033
     23 H6           0.4940    -2.4840    -0.0240 ha         1 4UM       0.225000
     24 H7          -2.4400    -1.9210    -0.0050 ha         1 4UM       0.146000
     25 H8           1.6270     1.5720    -0.0490 hn         1 4UM       0.366000
     26 H9          -0.8970     2.8320    -0.0500 ha         1 4UM       0.119000
     27 H10         -3.2590     2.3080    -0.0400 ha         1 4UM       0.103000
     28 H11         -5.1200     1.7400     0.0220 hn         1 4UM       0.313000
     29 H12         -6.3450     0.5460     0.0190 hn         1 4UM       0.313000
@<TRIPOS>BOND
     1     1    11 1   
     2     1    14 1   
     3     1    15 2   
     4     2    12 1   
     5     2    16 1   
     6     2    17 2   
     7     3     4 1   
     8     3    14 1   
     9     3    18 1   
    10     3    19 1   
    11     4    20 1   
    12     4    21 1   
    13     4    22 1   
    14     5     6 ar  
    15     5     7 1   
    16     5     8 ar  
    17     6     9 1   
    18     6    10 ar  
    19     7    11 2   
    20     7    23 1   
    21     8    12 ar  
    22     8    24 1   
    23     9    11 1   
    24     9    25 1   
    25    10    13 ar  
    26    10    26 1   
    27    12    13 ar  
    28    13    27 1   
    29    16    28 1   
    30    16    29 1   
@<TRIPOS>SUBSTRUCTURE
     1 4UM         1 TEMP              0 ****  ****    0 ROOT
