@<TRIPOS>MOLECULE
4UN
   52    55     1     0     0
SMALL
abcg2


@<TRIPOS>ATOM
      1 O16         -6.1620     1.2020    -0.7250 o          1 4UN      -0.696200
      2 S13         -6.0970    -0.2500    -0.5240 s6         1 4UN       1.360700
      3 O14         -7.2280    -0.8080     0.2250 o          1 4UN      -0.696200
      4 O15         -5.7680    -0.9880    -1.7490 o          1 4UN      -0.696200
      5 N8          -4.7950    -0.5570     0.5430 nu         1 4UN      -0.882100
      6 C4          -3.5520     0.0540     0.3840 ca         1 4UN       0.361000
      7 C5          -2.8530     0.4850     1.5140 ca         1 4UN      -0.174000
      8 C2          -1.5870     1.0350     1.4000 ca         1 4UN      -0.071500
      9 C6          -0.9700     1.1850     0.1610 ca         1 4UN      -0.166300
     10 C3          -1.6860     0.7770    -0.9620 ca         1 4UN      -0.071500
     11 C1          -2.9480     0.2140    -0.8660 ca         1 4UN      -0.174000
     12 C49          0.4110     1.7630     0.0360 c3         1 4UN      -0.003100
     13 C10          1.5540     0.7070     0.0870 c3         1 4UN      -0.089600
     14 C17          2.8750     1.3850    -0.1410 cc         1 4UN       0.575800
     15 N22          3.0960     2.6090     0.2230 nd         1 4UN      -0.377300
     16 O29          4.4180     2.8040    -0.0680 os         1 4UN      -0.100200
     17 C27          4.8810     1.6720    -0.5880 cd         1 4UN       0.484800
     18 C28          6.2990     1.6010    -0.9950 c3         1 4UN      -0.128900
     19 N23          3.9700     0.7610    -0.6580 nc         1 4UN      -0.701000
     20 C18          1.3090    -0.2990    -1.0030 cc         1 4UN       0.575800
     21 N20          1.5490    -0.0340    -2.2490 nd         1 4UN      -0.377300
     22 O25          1.0970    -1.1390    -2.9140 os         1 4UN      -0.100200
     23 C26          0.6200    -1.9820    -2.0070 cd         1 4UN       0.484800
     24 C24          0.0660    -3.2770    -2.4500 c3         1 4UN      -0.128900
     25 N21          0.7240    -1.5120    -0.8070 nc         1 4UN      -0.701000
     26 C19          1.5740     0.0340     1.4860 c3         1 4UN      -0.020100
     27 C36          2.8210    -0.7390     1.8210 ca         1 4UN      -0.068300
     28 C40          3.8690    -0.1040     2.4840 ca         1 4UN      -0.098000
     29 C43          5.0370    -0.7850     2.7960 ca         1 4UN      -0.117500
     30 C39          5.1700    -2.1250     2.4580 ca         1 4UN      -0.117000
     31 C42          4.1270    -2.7740     1.8120 ca         1 4UN      -0.117500
     32 C41          2.9620    -2.0860     1.4960 ca         1 4UN      -0.098000
     33 HN8         -5.1190    -0.5520     1.5020 hn         1 4UN       0.457000
     34 H5          -3.3080     0.3910     2.4930 ha         1 4UN       0.125500
     35 H2          -1.0820     1.3650     2.3000 ha         1 4UN       0.093000
     36 H3          -1.2510     0.9000    -1.9470 ha         1 4UN       0.093000
     37 H1          -3.4500    -0.1090    -1.7660 ha         1 4UN       0.125500
     38 H491         0.5860     2.4820     0.8380 hc         1 4UN       0.058200
     39 H492         0.4950     2.3150    -0.9030 hc         1 4UN       0.058200
     40 H281         6.5030     2.2980    -1.8090 hc         1 4UN       0.070033
     41 H282         6.9540     1.8590    -0.1630 hc         1 4UN       0.070033
     42 H283         6.5310     0.5940    -1.3290 hc         1 4UN       0.070033
     43 H241        -0.7240    -3.1290    -3.1860 hc         1 4UN       0.070033
     44 H242         0.8410    -3.8890    -2.9110 hc         1 4UN       0.070033
     45 H243        -0.3410    -3.8110    -1.5970 hc         1 4UN       0.070033
     46 H191         1.4560     0.8340     2.2200 hc         1 4UN       0.074700
     47 H192         0.6950    -0.6050     1.5680 hc         1 4UN       0.074700
     48 H40          3.7690     0.9400     2.7610 ha         1 4UN       0.120500
     49 H43          5.8400    -0.2700     3.3080 ha         1 4UN       0.103500
     50 H39          6.0770    -2.6620     2.7050 ha         1 4UN       0.101000
     51 H42          4.2180    -3.8210     1.5540 ha         1 4UN       0.103500
     52 H41          2.1540    -2.6020     0.9940 ha         1 4UN       0.120500
@<TRIPOS>BOND
     1     1     2 1   
     2     2     3 1   
     3     2     4 1   
     4     2     5 1   
     5     5     6 1   
     6     5    33 1   
     7     6     7 ar  
     8     6    11 ar  
     9     7     8 ar  
    10     7    34 1   
    11     8     9 ar  
    12     8    35 1   
    13     9    10 ar  
    14     9    12 1   
    15    10    11 ar  
    16    10    36 1   
    17    11    37 1   
    18    12    13 1   
    19    12    38 1   
    20    12    39 1   
    21    13    14 1   
    22    13    20 1   
    23    13    26 1   
    24    14    15 2   
    25    14    19 1   
    26    15    16 1   
    27    16    17 1   
    28    17    18 1   
    29    17    19 2   
    30    18    40 1   
    31    18    41 1   
    32    18    42 1   
    33    20    21 2   
    34    20    25 1   
    35    21    22 1   
    36    22    23 1   
    37    23    24 1   
    38    23    25 2   
    39    24    43 1   
    40    24    44 1   
    41    24    45 1   
    42    26    27 1   
    43    26    46 1   
    44    26    47 1   
    45    27    28 ar  
    46    27    32 ar  
    47    28    29 ar  
    48    28    48 1   
    49    29    30 ar  
    50    29    49 1   
    51    30    31 ar  
    52    30    50 1   
    53    31    32 ar  
    54    31    51 1   
    55    32    52 1   
@<TRIPOS>SUBSTRUCTURE
     1 4UN         1 TEMP              0 ****  ****    0 ROOT
