@<TRIPOS>MOLECULE
4UN
   52    55     1     0     0
SMALL
No Charge or Current Charge


@<TRIPOS>ATOM
      1 O16         -6.0150     1.3260    -0.5990 o          1 4UN      -0.696200
      2 S13         -6.2270    -0.1040    -0.3670 s6         1 4UN       1.360700
      3 O14         -7.2460    -0.4450     0.6250 o          1 4UN      -0.696200
      4 O15         -6.1530    -0.9730    -1.5440 o          1 4UN      -0.696200
      5 N8          -4.8880    -0.5340     0.4640 nu         1 4UN      -0.882100
      6 C4          -3.6340     0.0410     0.3480 ca         1 4UN       0.361000
      7 C5          -2.9260     0.3710     1.5140 ca         1 4UN      -0.174000
      8 C2          -1.6400     0.9340     1.4350 ca         1 4UN      -0.071500
      9 C6          -1.0370     1.1550     0.1820 ca         1 4UN      -0.166300
     10 C3          -1.7480     0.8260    -0.9890 ca         1 4UN      -0.071500
     11 C1          -3.0330     0.2640    -0.9040 ca         1 4UN      -0.174000
     12 C49          0.3630     1.7680     0.0930 c3         1 4UN      -0.003100
     13 C10          1.5390     0.7240     0.0950 c3         1 4UN      -0.089600
     14 C17          2.8690     1.4420    -0.0900 cc         1 4UN       0.575800
     15 N22          3.0980     2.6720     0.3530 nd         1 4UN      -0.377300
     16 O29          4.4450     2.8910    -0.0070 os         1 4UN      -0.100200
     17 C27          4.8530     1.7510    -0.6250 cd         1 4UN       0.484800
     18 C28          6.2560     1.6000    -1.1290 c3         1 4UN      -0.128900
     19 N23          3.9260     0.8280    -0.7050 nc         1 4UN      -0.701000
     20 C18          1.3160    -0.2100    -1.0880 cc         1 4UN       0.575800
     21 N20          1.4000     0.2020    -2.3490 nd         1 4UN      -0.377300
     22 O25          1.0810    -0.9610    -3.0830 os         1 4UN      -0.100200
     23 C26          0.8390    -1.9260    -2.1570 cd         1 4UN       0.484800
     24 C24          0.4410    -3.3110    -2.5680 c3         1 4UN      -0.128900
     25 N21          0.9610    -1.5190    -0.9180 nc         1 4UN      -0.701000
     26 C19          1.5500    -0.0080     1.4930 c3         1 4UN      -0.020100
     27 C36          2.8210    -0.7900     1.8410 ca         1 4UN      -0.068300
     28 C40          3.9100    -0.1330     2.4530 ca         1 4UN      -0.098000
     29 C43          5.0770    -0.8420     2.7860 ca         1 4UN      -0.117500
     30 C39          5.1610    -2.2180     2.5250 ca         1 4UN      -0.117000
     31 C42          4.0740    -2.8870     1.9380 ca         1 4UN      -0.117500
     32 C41          2.9080    -2.1770     1.6040 ca         1 4UN      -0.098000
     33 HN8         -5.2680    -0.5590     1.3930 hn         1 4UN       0.457000
     34 H5          -3.3730     0.1960     2.4890 ha         1 4UN       0.125500
     35 H2          -1.1130     1.1920     2.3510 ha         1 4UN       0.093000
     36 H3          -1.3070     1.0000    -1.9680 ha         1 4UN       0.093000
     37 H1          -3.5600    -0.0000    -1.8160 ha         1 4UN       0.125500
     38 H491         0.4920     2.4750     0.9230 hc         1 4UN       0.058200
     39 H492         0.4300     2.3820    -0.8150 hc         1 4UN       0.058200
     40 H281         6.2600     1.2950    -2.1810 hc         1 4UN       0.070033
     41 H282         6.8070     2.5440    -1.0460 hc         1 4UN       0.070033
     42 H283         6.7940     0.8410    -0.5510 hc         1 4UN       0.070033
     43 H241         0.6030    -3.4650    -3.6400 hc         1 4UN       0.070033
     44 H242         1.0260    -4.0610    -2.0250 hc         1 4UN       0.070033
     45 H243        -0.6200    -3.4860    -2.3560 hc         1 4UN       0.070033
     46 H191         1.4030     0.7440     2.2780 hc         1 4UN       0.074700
     47 H192         0.6760    -0.6670     1.5760 hc         1 4UN       0.074700
     48 H40          3.8550     0.9320     2.6690 ha         1 4UN       0.120500
     49 H43          5.9130    -0.3240     3.2500 ha         1 4UN       0.103500
     50 H39          6.0640    -2.7680     2.7840 ha         1 4UN       0.101000
     51 H42          4.1340    -3.9550     1.7460 ha         1 4UN       0.103500
     52 H41          2.0700    -2.7130     1.1650 ha         1 4UN       0.120500
@<TRIPOS>BOND
     1     1     2 1   
     2     2     3 1   
     3     2     4 1   
     4     2     5 1   
     5     5     6 1   
     6     5    33 1   
     7     6     7 ar  
     8     6    11 ar  
     9     7     8 ar  
    10     7    34 1   
    11     8     9 ar  
    12     8    35 1   
    13     9    10 ar  
    14     9    12 1   
    15    10    11 ar  
    16    10    36 1   
    17    11    37 1   
    18    12    13 1   
    19    12    38 1   
    20    12    39 1   
    21    13    14 1   
    22    13    20 1   
    23    13    26 1   
    24    14    15 2   
    25    14    19 1   
    26    15    16 1   
    27    16    17 1   
    28    17    18 1   
    29    17    19 2   
    30    18    40 1   
    31    18    41 1   
    32    18    42 1   
    33    20    21 2   
    34    20    25 1   
    35    21    22 1   
    36    22    23 1   
    37    23    24 1   
    38    23    25 2   
    39    24    43 1   
    40    24    44 1   
    41    24    45 1   
    42    26    27 1   
    43    26    46 1   
    44    26    47 1   
    45    27    28 ar  
    46    27    32 ar  
    47    28    29 ar  
    48    28    48 1   
    49    29    30 ar  
    50    29    49 1   
    51    30    31 ar  
    52    30    50 1   
    53    31    32 ar  
    54    31    51 1   
    55    32    52 1   
@<TRIPOS>SUBSTRUCTURE
     1 4UN         1 TEMP              0 ****  ****    0 ROOT
