@<TRIPOS>MOLECULE
4UO
   32    34     1     0     0
SMALL
No Charge or Current Charge


@<TRIPOS>ATOM
      1 O6           4.3740    -1.9190     0.5080 o          1 4UO      -0.499000
      2 C6           3.4790    -1.1370     0.2170 c          1 4UO       0.528500
      3 N1           3.6940    -0.0950    -0.6610 ns         1 4UO      -0.484500
      4 C2           2.8140     0.8730    -1.0680 c          1 4UO       0.631000
      5 O2           3.1210     1.7670    -1.8310 o          1 4UO      -0.555000
      6 N3           1.5610     0.7530    -0.5390 ns         1 4UO      -0.502600
      7 C4           1.1870    -0.2530     0.3260 cc         1 4UO       0.007600
      8 C5           2.0770    -1.1900     0.7550 cd         1 4UO       0.114500
      9 N7           1.4650    -2.0310     1.6760 nd         1 4UO      -0.590000
     10 C8           0.2170    -1.5790     1.7900 cc         1 4UO       0.408400
     11 N9          -0.0160    -0.5150     0.9370 na         1 4UO      -0.222500
     12 C1          -1.2750     0.2330     0.8390 c5         1 4UO       0.309300
     13 O4          -2.3700    -0.7050     0.7290 os         1 4UO      -0.407000
     14 C9          -3.4670    -0.0920    -0.0100 c5         1 4UO       0.121300
     15 C10         -3.7460    -0.9310    -1.2920 c3         1 4UO       0.142600
     16 O5          -4.3660    -2.1880    -0.9660 oh         1 4UO      -0.705000
     17 C3          -3.0040     1.3760    -0.3120 c5         1 4UO       0.112300
     18 O3          -3.3070     2.2970     0.7540 oh         1 4UO      -0.683000
     19 C7          -1.4740     1.1490    -0.4160 c5         1 4UO       0.126300
     20 O1          -0.7580     2.3950    -0.3780 oh         1 4UO      -0.697000
     21 H1           4.6240    -0.0230    -1.0430 hn         1 4UO       0.342500
     22 H2           0.9040     1.4970    -0.7810 hn         1 4UO       0.480000
     23 H3          -0.5560    -1.9850     2.4330 h5         1 4UO       0.084100
     24 H4          -1.3750     0.8190     1.7620 h2         1 4UO       0.115700
     25 H5          -4.3730    -0.0990     0.6120 h1         1 4UO       0.100700
     26 H6          -4.4070    -0.3510    -1.9500 h1         1 4UO       0.026700
     27 H7          -2.8030    -1.0950    -1.8300 h1         1 4UO       0.026700
     28 H8          -4.4680    -2.6890    -1.8100 ho         1 4UO       0.514000
     29 H9          -3.4180     1.7420    -1.2630 h1         1 4UO       0.056700
     30 H10         -4.2780     2.4740     0.7310 ho         1 4UO       0.512000
     31 H11         -1.2240     0.5960    -1.3330 h1         1 4UO       0.058700
     32 H12         -1.3590     3.0080     0.1150 ho         1 4UO       0.526000
@<TRIPOS>BOND
     1     1     2 2   
     2     2     3 1   
     3     2     8 1   
     4     3     4 1   
     5     3    21 1   
     6     4     5 2   
     7     4     6 1   
     8     6     7 1   
     9     6    22 1   
    10     7     8 2   
    11     7    11 1   
    12     8     9 1   
    13     9    10 2   
    14    10    11 1   
    15    10    23 1   
    16    11    12 1   
    17    12    13 1   
    18    12    19 1   
    19    12    24 1   
    20    13    14 1   
    21    14    15 1   
    22    14    17 1   
    23    14    25 1   
    24    15    16 1   
    25    15    26 1   
    26    15    27 1   
    27    16    28 1   
    28    17    18 1   
    29    17    19 1   
    30    17    29 1   
    31    18    30 1   
    32    19    20 1   
    33    19    31 1   
    34    20    32 1   
@<TRIPOS>SUBSTRUCTURE
     1 4UO         1 TEMP              0 ****  ****    0 ROOT
