@<TRIPOS>MOLECULE
4UO
   32    34     1     0     0
SMALL
bcc


@<TRIPOS>ATOM
      1 O6           3.8850    -2.3400    -0.4090 o          1 4UO      -0.574500
      2 C6           3.1590    -1.3760    -0.2730 c          1 4UO       0.671000
      3 N1           3.6410    -0.0800    -0.4690 ns         1 4UO      -0.618500
      4 C2           2.9790     1.1270    -0.3890 c          1 4UO       0.840500
      5 O2           3.5260     2.1850    -0.6210 o          1 4UO      -0.630500
      6 N3           1.6590     1.0420    -0.0250 ns         1 4UO      -0.456100
      7 C4           1.1030    -0.1780     0.1950 cc         1 4UO      -0.007000
      8 C5           1.7720    -1.3710     0.0890 cd         1 4UO       0.179800
      9 N7           0.9240    -2.4070     0.3710 nd         1 4UO      -0.590000
     10 C8          -0.2160    -1.8490     0.6410 cc         1 4UO       0.408400
     11 N9          -0.1640    -0.4750     0.5490 na         1 4UO      -0.243900
     12 C1          -1.2320     0.4870     0.8380 c5         1 4UO       0.256800
     13 O4          -2.3660    -0.1960     1.2340 os         1 4UO      -0.360600
     14 C9          -3.4270     0.0070     0.2930 c5         1 4UO       0.098100
     15 C10         -3.4860    -1.1120    -0.7290 c3         1 4UO       0.119400
     16 O5          -3.6500    -2.3250    -0.0380 oh         1 4UO      -0.582800
     17 C3          -3.1280     1.3750    -0.3170 c5         1 4UO       0.089100
     18 O3          -3.4710     2.4250     0.5440 oh         1 4UO      -0.560800
     19 C7          -1.6000     1.3180    -0.4040 c5         1 4UO       0.103100
     20 O1          -0.9280     2.5430    -0.3490 oh         1 4UO      -0.574800
     21 H1           4.6170    -0.0070    -0.7300 hn         1 4UO       0.342500
     22 H2           1.0990     1.8890    -0.0310 hn         1 4UO       0.366500
     23 H3          -1.1280    -2.3620     0.8980 h5         1 4UO       0.084100
     24 H4          -0.8740     1.1320     1.6480 h2         1 4UO       0.115700
     25 H5          -4.3600     0.0150     0.8640 h1         1 4UO       0.100700
     26 H6          -4.3280    -0.9060    -1.4030 h1         1 4UO       0.026700
     27 H7          -2.5810    -1.1180    -1.3510 h1         1 4UO       0.026700
     28 H8          -3.6450    -3.0410    -0.6800 ho         1 4UO       0.415000
     29 H9          -3.5830     1.4910    -1.3080 h1         1 4UO       0.056700
     30 H10         -4.4300     2.4830     0.5860 ho         1 4UO       0.413000
     31 H11         -1.3270     0.7620    -1.3090 h1         1 4UO       0.058700
     32 H12         -0.9690     2.9630    -1.2150 ho         1 4UO       0.427000
@<TRIPOS>BOND
     1     1     2 2   
     2     2     3 1   
     3     2     8 1   
     4     3     4 1   
     5     3    21 1   
     6     4     5 2   
     7     4     6 1   
     8     6     7 1   
     9     6    22 1   
    10     7     8 2   
    11     7    11 1   
    12     8     9 1   
    13     9    10 2   
    14    10    11 1   
    15    10    23 1   
    16    11    12 1   
    17    12    13 1   
    18    12    19 1   
    19    12    24 1   
    20    13    14 1   
    21    14    15 1   
    22    14    17 1   
    23    14    25 1   
    24    15    16 1   
    25    15    26 1   
    26    15    27 1   
    27    16    28 1   
    28    17    18 1   
    29    17    19 1   
    30    17    29 1   
    31    18    30 1   
    32    19    20 1   
    33    19    31 1   
    34    20    32 1   
@<TRIPOS>SUBSTRUCTURE
     1 4UO         1 TEMP              0 ****  ****    0 ROOT
