@<TRIPOS>MOLECULE
4UP
   38    41     1     0     0
SMALL
bcc


@<TRIPOS>ATOM
      1 N2           6.5560    -1.5230     0.1720 nv         1 4UP      -0.921800
      2 C1           5.9670    -0.2940     0.1380 ce         1 4UP       0.660800
      3 N1           6.6670     0.7650     0.2810 n2         1 4UP      -0.843100
      4 C2           4.4990    -0.3120    -0.1220 ca         1 4UP      -0.190900
      5 C11          3.6930     0.6450     0.4410 ca         1 4UP      -0.095000
      6 C10          2.3030     0.6630     0.1990 ca         1 4UP      -0.037000
      7 C5           1.7350    -0.3200    -0.6480 ca         1 4UP      -0.029000
      8 C4           2.5820    -1.2970    -1.2200 ca         1 4UP      -0.117000
      9 C3           3.9240    -1.2990    -0.9600 ca         1 4UP      -0.106000
     10 C9           1.4560     1.6400     0.7740 ca         1 4UP      -0.114000
     11 C8           0.1140     1.6420     0.5190 ca         1 4UP      -0.108000
     12 C7          -0.4570     0.6620    -0.3280 ca         1 4UP      -0.072300
     13 C6           0.3460    -0.2910    -0.9000 ca         1 4UP      -0.102000
     14 C12         -1.9140     0.6360    -0.5960 cx         1 4UP       0.108400
     15 C13         -2.9100     0.6760     0.4910 cx         1 4UP       0.116400
     16 O           -2.6560     1.8070    -0.3160 op         1 4UP      -0.374600
     17 C14         -4.2310     0.0140     0.3540 ca         1 4UP      -0.088300
     18 C19         -4.6370    -0.8940     1.3280 ca         1 4UP      -0.109500
     19 C18         -5.8520    -1.5550     1.2130 ca         1 4UP      -0.130000
     20 C17         -6.6780    -1.3060     0.1250 ca         1 4UP      -0.120000
     21 C16         -6.2810    -0.3940    -0.8450 ca         1 4UP      -0.130000
     22 C15         -5.0640     0.2640    -0.7330 ca         1 4UP      -0.109500
     23 H1           6.0100    -2.3070     0.4870 hn         1 4UP       0.413800
     24 H2           7.5190    -1.5440     0.4690 hn         1 4UP       0.413800
     25 H3           6.1020     1.5920     0.1240 hn         1 4UP       0.389400
     26 H4           4.1140     1.3960     1.1000 ha         1 4UP       0.138000
     27 H5           2.1550    -2.0490    -1.8720 ha         1 4UP       0.135000
     28 H6           4.5550    -2.0490    -1.4180 ha         1 4UP       0.144000
     29 H7           1.8870     2.3990     1.4160 ha         1 4UP       0.136000
     30 H8          -0.5130     2.4060     0.9590 ha         1 4UP       0.147000
     31 H9          -0.0820    -1.0390    -1.5580 ha         1 4UP       0.135000
     32 H10         -2.2080     0.1180    -1.5080 h1         1 4UP       0.094700
     33 H11         -2.5300     0.7460     1.5100 h1         1 4UP       0.094700
     34 H12         -3.9980    -1.0850     2.1830 ha         1 4UP       0.137000
     35 H13         -6.1560    -2.2580     1.9780 ha         1 4UP       0.132500
     36 H14         -7.6280    -1.8170     0.0350 ha         1 4UP       0.132000
     37 H15         -6.9260    -0.1890    -1.6900 ha         1 4UP       0.132500
     38 H16         -4.7730     0.9780    -1.4930 ha         1 4UP       0.137000
@<TRIPOS>BOND
     1     1     2 1   
     2     1    23 1   
     3     1    24 1   
     4     2     3 2   
     5     2     4 1   
     6     3    25 1   
     7     4     5 ar  
     8     4     9 ar  
     9     5     6 ar  
    10     5    26 1   
    11     6     7 ar  
    12     6    10 ar  
    13     7     8 ar  
    14     7    13 ar  
    15     8     9 ar  
    16     8    27 1   
    17     9    28 1   
    18    10    11 ar  
    19    10    29 1   
    20    11    12 ar  
    21    11    30 1   
    22    12    13 ar  
    23    12    14 1   
    24    13    31 1   
    25    14    15 1   
    26    14    16 1   
    27    14    32 1   
    28    15    16 1   
    29    15    17 1   
    30    15    33 1   
    31    17    18 ar  
    32    17    22 ar  
    33    18    19 ar  
    34    18    34 1   
    35    19    20 ar  
    36    19    35 1   
    37    20    21 ar  
    38    20    36 1   
    39    21    22 ar  
    40    21    37 1   
    41    22    38 1   
@<TRIPOS>SUBSTRUCTURE
     1 4UP         1 TEMP              0 ****  ****    0 ROOT
