@<TRIPOS>MOLECULE
4UP
   38    41     1     0     0
SMALL
No Charge or Current Charge


@<TRIPOS>ATOM
      1 N2           6.7400    -1.4410    -0.0310 nv         1 4UP      -1.032200
      2 C1           6.0610    -0.2860     0.0930 ce         1 4UP       0.660800
      3 N1           6.6760     0.7210     0.5570 n2         1 4UP      -0.843100
      4 C2           4.5870    -0.3100    -0.1620 ca         1 4UP      -0.190900
      5 C11          3.7240     0.5960     0.5000 ca         1 4UP      -0.077000
      6 C10          2.3410     0.6000     0.2320 ca         1 4UP      -0.037000
      7 C5           1.8030    -0.2930    -0.7160 ca         1 4UP      -0.029000
      8 C4           2.6550    -1.1820    -1.3930 ca         1 4UP      -0.099000
      9 C3           4.0340    -1.1870    -1.1250 ca         1 4UP      -0.088000
     10 C9           1.4900     1.4950     0.9070 ca         1 4UP      -0.096000
     11 C8           0.1110     1.4970     0.6380 ca         1 4UP      -0.090000
     12 C7          -0.4350     0.6050    -0.3090 ca         1 4UP      -0.072300
     13 C6           0.4210    -0.2870    -0.9830 ca         1 4UP      -0.084000
     14 C12         -1.9130     0.5890    -0.6100 cx         1 4UP       0.131600
     15 C13         -2.9550     0.6870     0.4710 cx         1 4UP       0.139600
     16 O           -2.6710     1.8040    -0.4040 op         1 4UP      -0.421000
     17 C14         -4.3020     0.0160     0.3600 ca         1 4UP      -0.088300
     18 C19         -4.8600    -0.6130     1.4910 ca         1 4UP      -0.091500
     19 C18         -6.1120    -1.2480     1.4080 ca         1 4UP      -0.112000
     20 C17         -6.8170    -1.2590     0.1930 ca         1 4UP      -0.102000
     21 C16         -6.2700    -0.6330    -0.9390 ca         1 4UP      -0.112000
     22 C15         -5.0180     0.0020    -0.8570 ca         1 4UP      -0.091500
     23 H1           6.1780    -2.2790     0.0510 hn         1 4UP       0.469000
     24 H2           7.6270    -1.4530     0.4560 hn         1 4UP       0.469000
     25 H3           6.0290     1.5190     0.5340 hn         1 4UP       0.389400
     26 H4           4.1190     1.2890     1.2390 ha         1 4UP       0.120000
     27 H5           2.2510    -1.8680    -2.1350 ha         1 4UP       0.117000
     28 H6           4.6720    -1.8720    -1.6800 ha         1 4UP       0.126000
     29 H7           1.8950     2.1900     1.6390 ha         1 4UP       0.118000
     30 H8          -0.5310     2.1990     1.1670 ha         1 4UP       0.129000
     31 H9           0.0120    -0.9790    -1.7160 ha         1 4UP       0.117000
     32 H10         -2.1740     0.0400    -1.5150 h1         1 4UP       0.094700
     33 H11         -2.6090     0.8170     1.4970 h1         1 4UP       0.094700
     34 H12         -4.3240    -0.6130     2.4370 ha         1 4UP       0.119000
     35 H13         -6.5350    -1.7320     2.2860 ha         1 4UP       0.114500
     36 H14         -7.7860    -1.7510     0.1300 ha         1 4UP       0.114000
     37 H15         -6.8150    -0.6390    -1.8800 ha         1 4UP       0.114500
     38 H16         -4.6100     0.4860    -1.7420 ha         1 4UP       0.119000
@<TRIPOS>BOND
     1     1     2 1   
     2     1    23 1   
     3     1    24 1   
     4     2     3 2   
     5     2     4 1   
     6     3    25 1   
     7     4     5 ar  
     8     4     9 ar  
     9     5     6 ar  
    10     5    26 1   
    11     6     7 ar  
    12     6    10 ar  
    13     7     8 ar  
    14     7    13 ar  
    15     8     9 ar  
    16     8    27 1   
    17     9    28 1   
    18    10    11 ar  
    19    10    29 1   
    20    11    12 ar  
    21    11    30 1   
    22    12    13 ar  
    23    12    14 1   
    24    13    31 1   
    25    14    15 1   
    26    14    16 1   
    27    14    32 1   
    28    15    16 1   
    29    15    17 1   
    30    15    33 1   
    31    17    18 ar  
    32    17    22 ar  
    33    18    19 ar  
    34    18    34 1   
    35    19    20 ar  
    36    19    35 1   
    37    20    21 ar  
    38    20    36 1   
    39    21    22 ar  
    40    21    37 1   
    41    22    38 1   
@<TRIPOS>SUBSTRUCTURE
     1 4UP         1 TEMP              0 ****  ****    0 ROOT
