@<TRIPOS>MOLECULE
4UQ
   83    87     1     0     0
SMALL
No Charge or Current Charge


@<TRIPOS>ATOM
      1 C13         -2.1270     1.5930    -1.0340 ca         1 4UQ      -0.175600
      2 C16         -2.2840     3.0990    -1.0050 c          1 4UQ       0.627700
      3 C15         -3.0610    -0.6080    -1.5500 ca         1 4UQ      -0.151500
      4 C19          0.0330     3.5670    -1.9320 c6         1 4UQ       0.061000
      5 C20          0.1250     4.5240    -3.1520 c6         1 4UQ       0.131600
      6 C22         -1.0590     6.2530    -1.9660 c6         1 4UQ       0.131600
      7 C23         -1.1730     5.3590    -0.7050 c6         1 4UQ       0.061000
      8 C11         -0.8780    -0.4450    -0.5220 ca         1 4UQ      -0.151500
      9 C12         -0.9790     0.9560    -0.5130 ca         1 4UQ      -0.051500
     10 C34          2.1500     1.1100     1.6200 ca         1 4UQ      -0.154600
     11 C27          0.4430    -1.2910     4.1220 c6         1 4UQ       0.107700
     12 N1           0.2670    -3.4560     2.8640 nh         1 4UQ      -0.795300
     13 N2          -0.7920    -3.1520     0.8530 nb         1 4UQ      -0.839000
     14 C3          -0.2470    -4.0290     1.6930 ca         1 4UQ       0.698900
     15 C4          -0.1860    -5.4000     1.4280 ca         1 4UQ      -0.293000
     16 C5          -0.7300    -5.8880     0.2380 ca         1 4UQ       0.024000
     17 C6          -1.3170    -4.9660    -0.6520 ca         1 4UQ      -0.339600
     18 C7          -1.2970    -3.6100    -0.2850 ca         1 4UQ       0.721900
     19 N9          -1.8510    -2.6320    -1.0690 nu         1 4UQ      -0.952900
     20 C10         -1.9210    -1.2390    -1.0280 ca         1 4UQ       0.336000
     21 C14         -3.1730     0.7930    -1.5400 ca         1 4UQ      -0.051500
     22 N17         -1.1220     3.9040    -1.0430 n          1 4UQ      -0.415800
     23 O18         -3.3910     3.6040    -0.8640 o          1 4UQ      -0.594100
     24 O21          0.1250     5.8990    -2.7120 os         1 4UQ      -0.447000
     25 N24         -1.7960    -6.7030    -2.2970 nt         1 4UQ      -0.597000
     26 O25         -2.6170    -4.6870    -2.6470 o          1 4UQ      -0.652100
     27 C26         -0.5010    -2.4230     3.6310 c6         1 4UQ       0.203800
     28 C28          1.5520    -1.9210     5.0070 c6         1 4UQ      -0.091400
     29 C29          2.3120    -3.0420     4.2440 c6         1 4UQ      -0.090400
     30 C30          1.3490    -4.1050     3.6500 c6         1 4UQ       0.222800
     31 N31          1.0330    -0.6100     2.9610 ns         1 4UQ      -0.498900
     32 C32          1.4900     0.6840     2.9140 c          1 4UQ       0.612700
     33 O33          1.3740     1.4360     3.8720 o          1 4UQ      -0.609100
     34 C35          2.4290     2.4730     1.3930 ca         1 4UQ      -0.074000
     35 C36          3.0380     2.8990     0.2000 ca         1 4UQ      -0.122500
     36 C37          3.3870     1.9740    -0.8140 ca         1 4UQ      -0.046300
     37 C38          3.1210     0.6080    -0.5710 ca         1 4UQ      -0.122500
     38 C39          2.5150     0.1790     0.6220 ca         1 4UQ      -0.074000
     39 C40          4.0680     2.3990    -2.1430 c3         1 4UQ      -0.003700
     40 C41          5.5060     1.8190    -2.1750 c3         1 4UQ      -0.084433
     41 C42          3.2660     1.8410    -3.3520 c3         1 4UQ      -0.084433
     42 C43          4.1650     3.9420    -2.3090 c3         1 4UQ      -0.084433
     43 H1          -3.8750    -1.2060    -1.9520 ha         1 4UQ       0.123000
     44 H2          -0.0450     2.5400    -2.3120 h1         1 4UQ       0.064950
     45 H3           0.9620     3.6330    -1.3520 h1         1 4UQ       0.064950
     46 H4           1.0470     4.3260    -3.7170 h1         1 4UQ       0.053450
     47 H5          -0.7290     4.3590    -3.8240 h1         1 4UQ       0.053450
     48 H6          -1.9460     6.1210    -2.6040 h1         1 4UQ       0.053450
     49 H7          -1.0000     7.3110    -1.6740 h1         1 4UQ       0.053450
     50 H8          -0.3400     5.5930    -0.0270 h1         1 4UQ       0.064950
     51 H9          -2.0990     5.6030    -0.1660 h1         1 4UQ       0.064950
     52 H10          0.0210    -0.9120    -0.1380 ha         1 4UQ       0.123000
     53 H11         -0.1670     1.5400    -0.0850 ha         1 4UQ       0.125500
     54 H12         -0.1380    -0.5650     4.7110 h1         1 4UQ       0.080700
     55 H13          0.2540    -6.0850     2.1440 ha         1 4UQ       0.127000
     56 H14         -0.7050    -6.9570     0.0390 ha         1 4UQ       0.108000
     57 H15         -2.3900    -3.0680    -1.8200 hn         1 4UQ       0.548000
     58 H16         -4.0740     1.2580    -1.9360 ha         1 4UQ       0.125500
     59 H17         -1.2450    -7.3300    -1.7330 hn         1 4UQ       0.314000
     60 H18         -2.2230    -7.0230    -3.1520 hn         1 4UQ       0.314000
     61 H19         -0.9950    -2.8860     4.4980 h1         1 4UQ       0.071700
     62 H20         -1.2990    -1.9700     3.0230 h1         1 4UQ       0.071700
     63 H21          2.2560    -1.1460     5.3390 hc         1 4UQ       0.057700
     64 H22          1.1000    -2.3380     5.9180 hc         1 4UQ       0.057700
     65 H23          2.9050    -2.6000     3.4320 hc         1 4UQ       0.051200
     66 H24          3.0310    -3.5310     4.9150 hc         1 4UQ       0.051200
     67 H25          0.9140    -4.7020     4.4650 h1         1 4UQ       0.047200
     68 H26          1.9380    -4.7860     3.0190 h1         1 4UQ       0.047200
     69 H27          1.1290    -1.1630     2.1190 hn         1 4UQ       0.327500
     70 H28          2.1690     3.2150     2.1450 ha         1 4UQ       0.124500
     71 H29          3.2260     3.9620     0.0860 ha         1 4UQ       0.117500
     72 H30          3.3940    -0.1440    -1.3060 ha         1 4UQ       0.117500
     73 H31          2.3500    -0.8870     0.7580 ha         1 4UQ       0.124500
     74 H32          6.0280     2.1120    -3.0940 hc         1 4UQ       0.037256
     75 H33          6.0900     2.1850    -1.3220 hc         1 4UQ       0.037256
     76 H34          5.4970     0.7230    -2.1310 hc         1 4UQ       0.037256
     77 H35          2.2220     2.1710    -3.3120 hc         1 4UQ       0.037256
     78 H36          3.6940     2.1880    -4.3000 hc         1 4UQ       0.037256
     79 H37          3.2710     0.7450    -3.3750 hc         1 4UQ       0.037256
     80 H38          3.1730     4.4080    -2.2700 hc         1 4UQ       0.037256
     81 H39          4.7910     4.3880    -1.5270 hc         1 4UQ       0.037256
     82 H40          4.6150     4.2050    -3.2750 hc         1 4UQ       0.037256
     83 C8          -1.9510    -5.4170    -1.9330 c          1 4UQ       0.645700
@<TRIPOS>BOND
     1     1     2 1   
     2     1     9 ar  
     3     1    21 ar  
     4     2    22 1   
     5     2    23 2   
     6     3    20 ar  
     7     3    21 ar  
     8     3    43 1   
     9     4     5 1   
    10     4    22 1   
    11     4    44 1   
    12     4    45 1   
    13     5    24 1   
    14     5    46 1   
    15     5    47 1   
    16     6     7 1   
    17     6    24 1   
    18     6    48 1   
    19     6    49 1   
    20     7    22 1   
    21     7    50 1   
    22     7    51 1   
    23     8     9 ar  
    24     8    20 ar  
    25     8    52 1   
    26     9    53 1   
    27    10    32 1   
    28    10    34 ar  
    29    10    38 ar  
    30    11    27 1   
    31    11    28 1   
    32    11    31 1   
    33    11    54 1   
    34    12    14 1   
    35    12    27 1   
    36    12    30 1   
    37    13    14 ar  
    38    13    18 ar  
    39    14    15 ar  
    40    15    16 ar  
    41    15    55 1   
    42    16    17 ar  
    43    16    56 1   
    44    17    18 ar  
    45    17    83 1   
    46    18    19 1   
    47    19    20 1   
    48    19    57 1   
    49    21    58 1   
    50    25    59 1   
    51    25    60 1   
    52    25    83 1   
    53    26    83 2   
    54    27    61 1   
    55    27    62 1   
    56    28    29 1   
    57    28    63 1   
    58    28    64 1   
    59    29    30 1   
    60    29    65 1   
    61    29    66 1   
    62    30    67 1   
    63    30    68 1   
    64    31    32 1   
    65    31    69 1   
    66    32    33 2   
    67    34    35 ar  
    68    34    70 1   
    69    35    36 ar  
    70    35    71 1   
    71    36    37 ar  
    72    36    39 1   
    73    37    38 ar  
    74    37    72 1   
    75    38    73 1   
    76    39    40 1   
    77    39    41 1   
    78    39    42 1   
    79    40    74 1   
    80    40    75 1   
    81    40    76 1   
    82    41    77 1   
    83    41    78 1   
    84    41    79 1   
    85    42    80 1   
    86    42    81 1   
    87    42    82 1   
@<TRIPOS>SUBSTRUCTURE
     1 4UQ         1 TEMP              0 ****  ****    0 ROOT
