@<TRIPOS>MOLECULE
4UQ
   83    87     1     0     0
SMALL
bcc


@<TRIPOS>ATOM
      1 C13         -2.0600     1.5820    -0.7940 ca         1 4UQ      -0.175600
      2 C16         -2.1090     3.0640    -0.6390 c          1 4UQ       0.694700
      3 C15         -3.1720    -0.4980    -1.2890 ca         1 4UQ      -0.169500
      4 C19         -0.1110     3.2910    -2.1080 c6         1 4UQ       0.061000
      5 C20         -0.0890     4.2440    -3.2920 c6         1 4UQ       0.108400
      6 C22         -0.7960     6.0310    -1.9930 c6         1 4UQ       0.108400
      7 C23         -0.8540     5.1600    -0.7520 c6         1 4UQ       0.061000
      8 C11         -0.9280    -0.5220    -0.4310 ca         1 4UQ      -0.169500
      9 C12         -0.9390     0.8590    -0.3950 ca         1 4UQ      -0.069500
     10 C34          2.2670     1.0200     1.5450 ca         1 4UQ      -0.154600
     11 C27          0.4510    -1.2360     3.9870 c6         1 4UQ       0.107700
     12 N1           0.0930    -3.4220     2.9250 nh         1 4UQ      -0.795300
     13 N2          -0.9700    -3.1190     0.9230 nb         1 4UQ      -0.839000
     14 C3          -0.3300    -3.9470     1.7440 ca         1 4UQ       0.764200
     15 C4          -0.1270    -5.2980     1.3950 ca         1 4UQ      -0.376300
     16 C5          -0.6180    -5.7220     0.1850 ca         1 4UQ       0.006000
     17 C6          -1.2820    -4.8650    -0.6970 ca         1 4UQ      -0.404900
     18 C7          -1.4320    -3.5290    -0.2470 ca         1 4UQ       0.787200
     19 N9          -2.0750    -2.6060    -1.0180 nu         1 4UQ      -0.759300
     20 C10         -2.0490    -1.2240    -0.8830 ca         1 4UQ       0.197600
     21 C14         -3.1820     0.8850    -1.2300 ca         1 4UQ      -0.069500
     22 N17         -1.0540     3.7660    -1.1110 n          1 4UQ      -0.482800
     23 O18         -3.0500     3.5890    -0.0580 o          1 4UQ      -0.594100
     24 O21          0.1830     5.5670    -2.8970 os         1 4UQ      -0.400600
     25 N24         -1.3600    -6.4940    -2.4700 nt         1 4UQ      -0.664000
     26 O25         -2.6560    -4.6720    -2.6240 o          1 4UQ      -0.652100
     27 C26         -0.5620    -2.2710     3.5230 c6         1 4UQ       0.203800
     28 C28          1.4550    -1.8900     4.9380 c6         1 4UQ      -0.091400
     29 C29          2.0720    -3.1350     4.3160 c6         1 4UQ      -0.090400
     30 C30          1.0040    -4.1060     3.8230 c6         1 4UQ       0.222800
     31 N31          1.0880    -0.6520     2.8210 ns         1 4UQ      -0.565900
     32 C32          1.6710     0.5580     2.8340 c          1 4UQ       0.679700
     33 O33          1.7020     1.2650     3.8330 o          1 4UQ      -0.609100
     34 C35          2.3860     2.3870     1.3230 ca         1 4UQ      -0.092000
     35 C36          2.9310     2.8700     0.1430 ca         1 4UQ      -0.140500
     36 C37          3.3900     2.0090    -0.8520 ca         1 4UQ      -0.046300
     37 C38          3.2810     0.6380    -0.6110 ca         1 4UQ      -0.140500
     38 C39          2.7300     0.1480     0.5600 ca         1 4UQ      -0.092000
     39 C40          4.0220     2.5050    -2.1460 c3         1 4UQ      -0.003700
     40 C41          5.5130     2.1370    -2.1340 c3         1 4UQ      -0.084433
     41 C42          3.3450     1.8320    -3.3480 c3         1 4UQ      -0.084433
     42 C43          3.8980     4.0210    -2.3100 c3         1 4UQ      -0.084433
     43 H1          -4.0490    -1.0250    -1.6440 ha         1 4UQ       0.141000
     44 H2          -0.3880     2.3010    -2.4650 h1         1 4UQ       0.064950
     45 H3           0.8860     3.2160    -1.6640 h1         1 4UQ       0.064950
     46 H4           0.6930     3.9420    -3.9910 h1         1 4UQ       0.053450
     47 H5          -1.0520     4.1890    -3.8210 h1         1 4UQ       0.053450
     48 H6          -1.7840     6.0530    -2.4740 h1         1 4UQ       0.053450
     49 H7          -0.5310     7.0520    -1.7160 h1         1 4UQ       0.053450
     50 H8           0.0890     5.2410    -0.2000 h1         1 4UQ       0.064950
     51 H9          -1.6540     5.4930    -0.0970 h1         1 4UQ       0.064950
     52 H10         -0.0380    -1.0520    -0.1300 ha         1 4UQ       0.141000
     53 H11         -0.0510     1.3740    -0.0490 ha         1 4UQ       0.143500
     54 H12         -0.0920    -0.4490     4.5150 h1         1 4UQ       0.080700
     55 H13          0.3410    -6.0060     2.0610 ha         1 4UQ       0.145000
     56 H14         -0.5040    -6.7710    -0.0570 ha         1 4UQ       0.126000
     57 H15         -2.6050    -3.0020    -1.7870 hn         1 4UQ       0.492800
     58 H16         -4.0710     1.4200    -1.5370 ha         1 4UQ       0.143500
     59 H17         -0.5690    -6.9770    -2.0820 hn         1 4UQ       0.314000
     60 H18         -1.7030    -6.8260    -3.3560 hn         1 4UQ       0.314000
     61 H19         -1.1350    -2.6010     4.3980 h1         1 4UQ       0.071700
     62 H20         -1.2580    -1.8350     2.8110 h1         1 4UQ       0.071700
     63 H21          2.2260    -1.1750     5.2280 hc         1 4UQ       0.057700
     64 H22          0.9190    -2.1650     5.8520 hc         1 4UQ       0.057700
     65 H23          2.7180    -2.8610     3.4770 hc         1 4UQ       0.051200
     66 H24          2.7030    -3.6470     5.0450 hc         1 4UQ       0.051200
     67 H25          0.4510    -4.5190     4.6760 h1         1 4UQ       0.047200
     68 H26          1.4850    -4.9360     3.3130 h1         1 4UQ       0.047200
     69 H27          1.0120    -1.1570     1.9530 hn         1 4UQ       0.327500
     70 H28          2.0450     3.0850     2.0760 ha         1 4UQ       0.142500
     71 H29          2.9970     3.9420     0.0120 ha         1 4UQ       0.135500
     72 H30          3.6390    -0.0730    -1.3450 ha         1 4UQ       0.135500
     73 H31          2.7010    -0.9260     0.7020 ha         1 4UQ       0.142500
     74 H32          5.9910     2.4600    -3.0610 hc         1 4UQ       0.037256
     75 H33          6.0300     2.6190    -1.3020 hc         1 4UQ       0.037256
     76 H34          5.6630     1.0600    -2.0400 hc         1 4UQ       0.037256
     77 H35          2.2710     2.0260    -3.3640 hc         1 4UQ       0.037256
     78 H36          3.7660     2.2170    -4.2780 hc         1 4UQ       0.037256
     79 H37          3.4810     0.7500    -3.3500 hc         1 4UQ       0.037256
     80 H38          2.8580     4.3560    -2.3090 hc         1 4UQ       0.037256
     81 H39          4.4250     4.5680    -1.5270 hc         1 4UQ       0.037256
     82 H40          4.3350     4.3200    -3.2630 hc         1 4UQ       0.037256
     83 C8          -1.8150    -5.3230    -1.9950 c          1 4UQ       0.712700
@<TRIPOS>BOND
     1     1     2 1   
     2     1     9 ar  
     3     1    21 ar  
     4     2    22 1   
     5     2    23 2   
     6     3    20 ar  
     7     3    21 ar  
     8     3    43 1   
     9     4     5 1   
    10     4    22 1   
    11     4    44 1   
    12     4    45 1   
    13     5    24 1   
    14     5    46 1   
    15     5    47 1   
    16     6     7 1   
    17     6    24 1   
    18     6    48 1   
    19     6    49 1   
    20     7    22 1   
    21     7    50 1   
    22     7    51 1   
    23     8     9 ar  
    24     8    20 ar  
    25     8    52 1   
    26     9    53 1   
    27    10    32 1   
    28    10    34 ar  
    29    10    38 ar  
    30    11    27 1   
    31    11    28 1   
    32    11    31 1   
    33    11    54 1   
    34    12    14 1   
    35    12    27 1   
    36    12    30 1   
    37    13    14 ar  
    38    13    18 ar  
    39    14    15 ar  
    40    15    16 ar  
    41    15    55 1   
    42    16    17 ar  
    43    16    56 1   
    44    17    18 ar  
    45    17    83 1   
    46    18    19 1   
    47    19    20 1   
    48    19    57 1   
    49    21    58 1   
    50    25    59 1   
    51    25    60 1   
    52    25    83 1   
    53    26    83 2   
    54    27    61 1   
    55    27    62 1   
    56    28    29 1   
    57    28    63 1   
    58    28    64 1   
    59    29    30 1   
    60    29    65 1   
    61    29    66 1   
    62    30    67 1   
    63    30    68 1   
    64    31    32 1   
    65    31    69 1   
    66    32    33 2   
    67    34    35 ar  
    68    34    70 1   
    69    35    36 ar  
    70    35    71 1   
    71    36    37 ar  
    72    36    39 1   
    73    37    38 ar  
    74    37    72 1   
    75    38    73 1   
    76    39    40 1   
    77    39    41 1   
    78    39    42 1   
    79    40    74 1   
    80    40    75 1   
    81    40    76 1   
    82    41    77 1   
    83    41    78 1   
    84    41    79 1   
    85    42    80 1   
    86    42    81 1   
    87    42    82 1   
@<TRIPOS>SUBSTRUCTURE
     1 4UQ         1 TEMP              0 ****  ****    0 ROOT
