@<TRIPOS>MOLECULE
4UR
   67    73     1     0     0
SMALL
abcg2


@<TRIPOS>ATOM
      1 C21        -23.3940    20.7610   -11.1740 c5         1 4UR       0.153300
      2 C22        -22.4390    21.6520   -11.9380 c3         1 4UR       0.224600
      3 C28        -19.2440    22.5760    -8.8730 c5         1 4UR       0.229300
      4 C02        -13.3690    20.7310    -8.0700 cc         1 4UR       0.690800
      5 N03        -14.4970    21.3930    -7.9060 nd         1 4UR      -0.682100
      6 C04        -15.5630    20.5930    -7.7130 cd         1 4UR       0.103400
      7 C05        -15.5990    19.2030    -7.6690 cc         1 4UR       0.108500
      8 N06        -16.8920    18.7620    -7.4470 nc         1 4UR      -0.609000
      9 C07        -17.6150    19.8510    -7.3650 cd         1 4UR       0.473400
     10 N08        -16.8580    21.0010    -7.5140 na         1 4UR      -0.191500
     11 C09        -17.3010    22.3960    -7.5310 c5         1 4UR       0.277300
     12 O10        -18.4110    22.5620    -6.6740 os         1 4UR      -0.450000
     13 C11        -19.5880    22.9270    -7.4240 c5         1 4UR       0.146300
     14 C12        -20.7930    22.2300    -6.8400 c3         1 4UR       0.230600
     15 O13        -20.5960    20.8230    -6.9440 os         1 4UR      -0.629400
     16 P14        -21.7230    19.7370    -6.5250 p5         1 4UR       1.406800
     17 O15        -21.0660    18.4130    -6.7070 o          1 4UR      -0.807500
     18 O16        -22.3910    20.1080    -5.2460 o          1 4UR      -0.807500
     19 O17        -22.8620    19.9730    -7.6860 os         1 4UR      -0.605400
     20 C18        -22.5190    20.1910    -9.0390 c5         1 4UR       0.166300
     21 C19        -23.5410    21.1110    -9.7000 c5         1 4UR       0.141300
     22 O20        -24.8610    20.7890    -9.2800 oh         1 4UR      -0.750000
     23 O23        -21.1600    21.6600   -11.3040 os         1 4UR      -0.638400
     24 P24        -20.1500    22.9380   -11.3470 p5         1 4UR       1.419800
     25 O25        -20.8250    24.0920   -12.0060 o          1 4UR      -0.826000
     26 O26        -18.8260    22.4290   -11.8080 o          1 4UR      -0.826000
     27 O27        -20.0570    23.3210    -9.7580 os         1 4UR      -0.578400
     28 C29        -17.7420    22.8730    -8.9270 c5         1 4UR       0.099300
     29 O30        -17.5580    24.2720    -9.0530 oh         1 4UR      -0.691000
     30 O31        -22.9550    19.3800   -11.2100 os         1 4UR      -0.470000
     31 C32        -22.5750    18.9310    -9.9180 c5         1 4UR       0.299300
     32 N33        -21.3160    18.2230   -10.0040 na         1 4UR      -0.283300
     33 C34        -20.1040    18.7330   -10.4200 cc         1 4UR       0.439700
     34 N35        -19.1280    17.8620   -10.3450 nd         1 4UR      -0.575100
     35 C36        -19.7210    16.7120    -9.8490 ca         1 4UR      -0.069600
     36 C37        -19.2110    15.4450    -9.5170 ca         1 4UR       0.435900
     37 N38        -17.9130    15.1200    -9.6640 nv         1 4UR      -1.075900
     38 N39        -20.0700    14.5190    -9.0490 nb         1 4UR      -0.324000
     39 C40        -21.3620    14.8440    -8.9180 ca         1 4UR       0.154900
     40 N41        -21.9520    16.0080    -9.1820 nb         1 4UR      -0.199000
     41 C42        -21.0840    16.9160    -9.6410 ca         1 4UR       0.162500
     42 C43        -14.3850    18.4810    -7.8510 c          1 4UR       0.520500
     43 O44        -14.1950    17.2650    -7.8580 o          1 4UR      -0.560000
     44 N45        -13.3020    19.3620    -8.0470 ns         1 4UR      -0.457400
     45 H211       -24.3680    20.8110   -11.6660 h1         1 4UR       0.059700
     46 H221       -22.8470    22.6620   -11.9820 h1         1 4UR       0.037700
     47 H222       -22.3310    21.2730   -12.9580 h1         1 4UR       0.037700
     48 H281       -19.3810    21.5050    -9.0310 h1         1 4UR       0.069700
     49 H012       -12.2390    22.3970    -8.1600 hn         1 4UR       0.483500
     50 H011       -11.3350    20.9400    -8.2000 hn         1 4UR       0.483500
     51 H091       -16.4590    22.9880    -7.1730 h2         1 4UR       0.073700
     52 H111       -19.7460    24.0070    -7.3490 h1         1 4UR       0.064700
     53 H121       -20.9200    22.5120    -5.7940 h1         1 4UR       0.035200
     54 H122       -21.6830    22.5430    -7.3940 h1         1 4UR       0.035200
     55 H181       -21.5340    20.6400    -9.1180 h1         1 4UR       0.077700
     56 H191       -23.3160    22.1630    -9.5050 h1         1 4UR       0.063700
     57 H201       -24.8310    20.6760    -8.3180 ho         1 4UR       0.534000
     58 H291       -17.2350    22.3290    -9.7210 h1         1 4UR       0.102700
     59 H301       -16.6140    24.4450    -9.1580 ho         1 4UR       0.484000
     60 H321       -23.3010    18.2200    -9.5230 h2         1 4UR       0.103700
     61 H341       -20.0230    19.7460   -10.7810 h5         1 4UR       0.101800
     62 H381       -17.5820    14.2460    -9.2880 hn         1 4UR       0.492000
     63 H382       -17.2370    15.8360    -9.8690 hn         1 4UR       0.492000
     64 H401       -22.0060    14.0550    -8.5440 h5         1 4UR       0.018100
     65 H451       -12.4050    18.9170    -8.1950 hn         1 4UR       0.302500
     66 N01        -12.2230    21.4010    -8.3130 nv         1 4UR      -1.055200
     67 H071       -18.6760    19.8980    -7.1890 h5         1 4UR       0.126100
@<TRIPOS>BOND
     1     1     2 1   
     2     1    21 1   
     3     1    30 1   
     4     1    45 1   
     5     2    23 1   
     6     2    46 1   
     7     2    47 1   
     8     3    13 1   
     9     3    27 1   
    10     3    28 1   
    11     3    48 1   
    12     4     5 2   
    13     4    44 1   
    14     4    66 1   
    15     5     6 1   
    16     6     7 2   
    17     6    10 1   
    18     7     8 1   
    19     7    42 1   
    20     8     9 2   
    21     9    10 1   
    22     9    67 1   
    23    10    11 1   
    24    11    12 1   
    25    11    28 1   
    26    11    51 1   
    27    12    13 1   
    28    13    14 1   
    29    13    52 1   
    30    14    15 1   
    31    14    53 1   
    32    14    54 1   
    33    15    16 1   
    34    16    17 1   
    35    16    18 1   
    36    16    19 1   
    37    19    20 1   
    38    20    21 1   
    39    20    31 1   
    40    20    55 1   
    41    21    22 1   
    42    21    56 1   
    43    22    57 1   
    44    23    24 1   
    45    24    25 1   
    46    24    26 1   
    47    24    27 1   
    48    28    29 1   
    49    28    58 1   
    50    29    59 1   
    51    30    31 1   
    52    31    32 1   
    53    31    60 1   
    54    32    33 1   
    55    32    41 1   
    56    33    34 2   
    57    33    61 1   
    58    34    35 1   
    59    35    36 ar  
    60    35    41 ar  
    61    36    37 1   
    62    36    38 ar  
    63    37    62 1   
    64    37    63 1   
    65    38    39 ar  
    66    39    40 ar  
    67    39    64 1   
    68    40    41 ar  
    69    42    43 2   
    70    42    44 1   
    71    44    65 1   
    72    49    66 1   
    73    50    66 1   
@<TRIPOS>SUBSTRUCTURE
     1 4UR         1 TEMP              0 ****  ****    0 ROOT
