@<TRIPOS>MOLECULE
4UR
   67    73     1     0     0
SMALL
No Charge or Current Charge


@<TRIPOS>ATOM
      1 C21        -22.3360    20.7520   -11.5060 c5         1 4UR       0.153300
      2 C22        -20.9340    21.2080   -12.0700 c3         1 4UR       0.224600
      3 C28        -19.3620    22.7060    -8.3210 c5         1 4UR       0.229300
      4 C02        -14.9050    19.9860    -9.5020 cc         1 4UR       0.690800
      5 N03        -15.5410    20.9700    -8.9060 nd         1 4UR      -0.682100
      6 C04        -16.2990    20.5430    -7.8160 cd         1 4UR       0.103400
      7 C05        -16.3680    19.2390    -7.3980 cc         1 4UR       0.108500
      8 N06        -17.1730    19.1290    -6.2900 nc         1 4UR      -0.609000
      9 C07        -17.6120    20.3670    -6.0450 cd         1 4UR       0.473400
     10 N08        -17.1050    21.2790    -6.9750 na         1 4UR      -0.191500
     11 C09        -17.3920    22.7210    -7.0450 c5         1 4UR       0.277300
     12 O10        -18.4670    23.0300    -6.1170 os         1 4UR      -0.450000
     13 C11        -19.7250    23.0680    -6.8520 c5         1 4UR       0.146300
     14 C12        -20.8260    22.1870    -6.1860 c3         1 4UR       0.230600
     15 O13        -20.6690    20.8150    -6.5880 os         1 4UR      -0.629400
     16 P14        -21.9540    19.8420    -6.6150 p5         1 4UR       1.406800
     17 O15        -21.5660    18.4260    -6.8500 o          1 4UR      -0.807500
     18 O16        -22.7670    19.9990    -5.3770 o          1 4UR      -0.807500
     19 O17        -22.7140    20.4670    -7.8970 os         1 4UR      -0.605400
     20 C18        -22.0150    20.4540    -9.1770 c5         1 4UR       0.166300
     21 C19        -22.8440    21.3340   -10.1500 c5         1 4UR       0.141300
     22 O20        -24.2510    21.1260    -9.9380 oh         1 4UR      -0.750000
     23 O23        -20.0480    21.8200   -11.1010 os         1 4UR      -0.638400
     24 P24        -20.0420    23.4080   -10.8050 p5         1 4UR       1.419800
     25 O25        -21.1720    24.0870   -11.4960 o          1 4UR      -0.826000
     26 O26        -18.7370    24.0590   -11.1110 o          1 4UR      -0.826000
     27 O27        -20.3220    23.3430    -9.2200 os         1 4UR      -0.578400
     28 C29        -17.9050    23.2510    -8.4330 c5         1 4UR       0.099300
     29 O30        -17.8260    24.6840    -8.5880 oh         1 4UR      -0.691000
     30 O31        -22.3480    19.3120   -11.2690 os         1 4UR      -0.470000
     31 C32        -21.9750    19.0530    -9.8890 c5         1 4UR       0.299300
     32 N33        -20.7170    18.2980    -9.8700 na         1 4UR      -0.283300
     33 C34        -19.4230    18.8340    -9.8290 cc         1 4UR       0.439700
     34 N35        -18.4920    17.8770    -9.6660 nd         1 4UR      -0.575100
     35 C36        -19.2470    16.7050    -9.5960 ca         1 4UR      -0.069600
     36 C37        -18.8220    15.3750    -9.3960 ca         1 4UR       0.435900
     37 N38        -17.5210    15.0310    -9.1920 nv         1 4UR      -1.075900
     38 N39        -19.7050    14.3640    -9.3610 nb         1 4UR      -0.324000
     39 C40        -21.0070    14.7030    -9.5240 ca         1 4UR       0.154900
     40 N41        -21.5040    15.9490    -9.7060 nb         1 4UR      -0.199000
     41 C42        -20.5930    16.9430    -9.7350 ca         1 4UR       0.162500
     42 C43        -15.6360    18.1720    -8.1280 c          1 4UR       0.520500
     43 O44        -15.6410    16.9750    -7.8690 o          1 4UR      -0.560000
     44 N45        -14.9220    18.6760    -9.1710 ns         1 4UR      -0.457400
     45 H211       -23.0660    20.9610   -12.2990 h1         1 4UR       0.059700
     46 H221       -21.1170    21.9030   -12.8990 h1         1 4UR       0.037700
     47 H222       -20.4420    20.3340   -12.5150 h1         1 4UR       0.037700
     48 H281       -19.3350    21.6260    -8.4840 h1         1 4UR       0.069700
     49 H012       -14.0040    21.3040   -10.6370 hn         1 4UR       0.483500
     50 H011       -13.3450    19.7260   -10.7240 hn         1 4UR       0.483500
     51 H091       -16.4660    23.2250    -6.7450 h2         1 4UR       0.073700
     52 H111       -20.0780    24.1070    -6.8110 h1         1 4UR       0.064700
     53 H121       -20.7610    22.2860    -5.0950 h1         1 4UR       0.035200
     54 H122       -21.8050    22.5720    -6.5020 h1         1 4UR       0.035200
     55 H181       -21.0160    20.8490    -9.0560 h1         1 4UR       0.077700
     56 H191       -22.6070    22.3990   -10.0370 h1         1 4UR       0.063700
     57 H201       -24.2930    20.8810    -8.9780 ho         1 4UR       0.534000
     58 H291       -17.3700    22.7560    -9.2540 h1         1 4UR       0.102700
     59 H301       -18.1010    24.8270    -9.5350 ho         1 4UR       0.484000
     60 H321       -22.7300    18.3970    -9.4380 h2         1 4UR       0.103700
     61 H341       -19.2200    19.8920    -9.9120 h5         1 4UR       0.101800
     62 H381       -17.3460    14.1120    -8.7980 hn         1 4UR       0.492000
     63 H382       -16.9030    15.7750    -8.8610 hn         1 4UR       0.492000
     64 H401       -21.7290    13.8890    -9.4990 h5         1 4UR       0.018100
     65 H451       -14.4100    18.0170    -9.7330 hn         1 4UR       0.302500
     66 N01        -14.1520    20.3080   -10.5380 nv         1 4UR      -1.055200
     67 H071       -18.2790    20.6680    -5.2450 h5         1 4UR       0.126100
@<TRIPOS>BOND
     1     1     2 1   
     2     1    21 1   
     3     1    30 1   
     4     1    45 1   
     5     2    23 1   
     6     2    46 1   
     7     2    47 1   
     8     3    13 1   
     9     3    27 1   
    10     3    28 1   
    11     3    48 1   
    12     4     5 2   
    13     4    44 1   
    14     4    66 1   
    15     5     6 1   
    16     6     7 2   
    17     6    10 1   
    18     7     8 1   
    19     7    42 1   
    20     8     9 2   
    21     9    10 1   
    22     9    67 1   
    23    10    11 1   
    24    11    12 1   
    25    11    28 1   
    26    11    51 1   
    27    12    13 1   
    28    13    14 1   
    29    13    52 1   
    30    14    15 1   
    31    14    53 1   
    32    14    54 1   
    33    15    16 1   
    34    16    17 1   
    35    16    18 1   
    36    16    19 1   
    37    19    20 1   
    38    20    21 1   
    39    20    31 1   
    40    20    55 1   
    41    21    22 1   
    42    21    56 1   
    43    22    57 1   
    44    23    24 1   
    45    24    25 1   
    46    24    26 1   
    47    24    27 1   
    48    28    29 1   
    49    28    58 1   
    50    29    59 1   
    51    30    31 1   
    52    31    32 1   
    53    31    60 1   
    54    32    33 1   
    55    32    41 1   
    56    33    34 2   
    57    33    61 1   
    58    34    35 1   
    59    35    36 ar  
    60    35    41 ar  
    61    36    37 1   
    62    36    38 ar  
    63    37    62 1   
    64    37    63 1   
    65    38    39 ar  
    66    39    40 ar  
    67    39    64 1   
    68    40    41 ar  
    69    42    43 2   
    70    42    44 1   
    71    44    65 1   
    72    49    66 1   
    73    50    66 1   
@<TRIPOS>SUBSTRUCTURE
     1 4UR         1 TEMP              0 ****  ****    0 ROOT
