@<TRIPOS>MOLECULE
4US
   55    59     1     0     0
SMALL
abcg2


@<TRIPOS>ATOM
      1 C13          0.0390     1.2660    -0.0040 ca         1 4US      -0.052000
      2 C18         -6.6200     0.4990    -0.1260 c6         1 4US       0.137300
      3 C17         -5.1040    -0.3850    -1.7390 c6         1 4US       0.137300
      4 C16         -4.2720    -1.0270    -0.6390 c6         1 4US       0.092500
      5 C15          3.2660     1.5380    -0.8230 cp         1 4US      -0.041000
      6 C19         -5.8130    -0.1400     0.9920 c6         1 4US       0.092500
      7 C20         -7.3080     0.2670    -2.4090 c3         1 4US       0.152100
      8 C21          3.3820     1.9060    -2.1610 ca         1 4US      -0.089000
      9 C22          3.4540     3.2390    -2.5360 ca         1 4US      -0.112000
     10 C23          3.4140     4.2310    -1.5670 ca         1 4US      -0.098000
     11 C24          3.3070     3.8900    -0.2270 ca         1 4US      -0.108000
     12 C11         -2.0530     0.2930     0.7390 ca         1 4US      -0.110600
     13 C12         -1.3020     1.3940     0.3000 ca         1 4US      -0.109000
     14 C1           1.9620    -1.8500     0.3090 ca         1 4US       0.051800
     15 C2           1.9950    -0.4770    -0.0320 cq         1 4US      -0.086000
     16 C3           3.1880     0.1070    -0.4550 cp         1 4US       0.051000
     17 C4           4.3170    -0.6950    -0.5450 ca         1 4US      -0.149000
     18 C5           4.2680    -2.0470    -0.2180 ca         1 4US      -0.049000
     19 C6           3.0970    -2.6660     0.2080 ca         1 4US      -0.189600
     20 C7           3.0080    -4.1060     0.5670 c          1 4US       0.632700
     21 O1           2.0200    -4.5480     1.1490 o          1 4US      -0.640100
     22 N1           4.0410    -4.8900     0.2310 nt         1 4US      -0.597000
     23 N2           0.6940    -2.1700     0.6930 na         1 4US      -0.211600
     24 C8          -0.1100    -1.0660     0.6110 ca         1 4US      -0.012200
     25 C9           0.6580     0.0260     0.1580 cq         1 4US      -0.072000
     26 C10         -1.4630    -0.9510     0.9010 ca         1 4US      -0.112000
     27 C14         -3.4780     0.5210     1.1380 c          1 4US       0.612700
     28 O2          -3.7310     1.3920     1.9610 o          1 4US      -0.593100
     29 N3          -4.4210    -0.2790     0.5980 n          1 4US      -0.401800
     30 N4          -6.4930    -0.2750    -1.3450 n3         1 4US      -0.715600
     31 C25          3.2360     2.5520     0.1310 ca         1 4US       0.131000
     32 CL1          3.1080     2.1460     1.8100 cl         1 4US      -0.184000
     33 H8           0.5880     2.1260    -0.3620 ha         1 4US       0.125000
     34 H14         -7.6710     0.5340     0.1700 h1         1 4US       0.041200
     35 H13         -6.2850     1.5420    -0.2630 h1         1 4US       0.041200
     36 H12         -4.6660     0.5990    -1.9830 h1         1 4US       0.041200
     37 H11         -5.0330    -1.0040    -2.6370 h1         1 4US       0.041200
     38 H10         -4.6020    -2.0570    -0.4730 h1         1 4US       0.065450
     39 H9          -3.2310    -1.0600    -0.9500 h1         1 4US       0.065450
     40 H16         -5.8820     0.4540     1.8990 h1         1 4US       0.065450
     41 H15         -6.2090    -1.1370     1.2050 h1         1 4US       0.065450
     42 H18         -7.2540    -0.3770    -3.2880 h1         1 4US       0.032033
     43 H17         -8.3510     0.3110    -2.0920 h1         1 4US       0.032033
     44 H19         -7.0070     1.2810    -2.7140 h1         1 4US       0.032033
     45 H20          3.4050     1.1290    -2.9150 ha         1 4US       0.122000
     46 H21          3.5390     3.5000    -3.5820 ha         1 4US       0.119000
     47 H22          3.4690     5.2740    -1.8470 ha         1 4US       0.119000
     48 H23          3.2820     4.6570     0.5350 ha         1 4US       0.132000
     49 H7          -1.7830     2.3570     0.1880 ha         1 4US       0.127000
     50 H1           5.2560    -0.2630    -0.8630 ha         1 4US       0.122000
     51 H2           5.1900    -2.6090    -0.2870 ha         1 4US       0.107000
     52 H3           4.8060    -4.5830    -0.3440 hn         1 4US       0.316000
     53 H4           4.0050    -5.8720     0.4480 hn         1 4US       0.316000
     54 H5           0.4190    -3.0870     1.0060 hn         1 4US       0.386000
     55 H6          -2.0300    -1.8050     1.2500 ha         1 4US       0.128000
@<TRIPOS>BOND
     1     1    13 ar  
     2     1    25 2   
     3     1    33 1   
     4     2     6 1   
     5     2    30 1   
     6     2    34 1   
     7     2    35 1   
     8     3     4 1   
     9     3    30 1   
    10     3    36 1   
    11     3    37 1   
    12     4    29 1   
    13     4    38 1   
    14     4    39 1   
    15     5     8 ar  
    16     5    16 1   
    17     5    31 ar  
    18     6    29 1   
    19     6    40 1   
    20     6    41 1   
    21     7    30 1   
    22     7    42 1   
    23     7    43 1   
    24     7    44 1   
    25     8     9 ar  
    26     8    45 1   
    27     9    10 ar  
    28     9    46 1   
    29    10    11 ar  
    30    10    47 1   
    31    11    31 ar  
    32    11    48 1   
    33    12    13 ar  
    34    12    26 ar  
    35    12    27 1   
    36    13    49 1   
    37    14    15 1   
    38    14    19 ar  
    39    14    23 1   
    40    15    16 2   
    41    15    25 1   
    42    16    17 ar  
    43    17    18 ar  
    44    17    50 1   
    45    18    19 ar  
    46    18    51 1   
    47    19    20 1   
    48    20    21 2   
    49    20    22 1   
    50    22    52 1   
    51    22    53 1   
    52    23    24 1   
    53    23    54 1   
    54    24    25 1   
    55    24    26 ar  
    56    26    55 1   
    57    27    28 2   
    58    27    29 1   
    59    31    32 1   
@<TRIPOS>SUBSTRUCTURE
     1 4US         1 TEMP              0 ****  ****    0 ROOT
