@<TRIPOS>MOLECULE
4US
   55    59     1     0     0
SMALL
No Charge or Current Charge


@<TRIPOS>ATOM
      1 C13          0.2130     1.4200    -0.1340 ca         1 4US      -0.052000
      2 C18         -6.8710     0.3950    -0.0370 c6         1 4US       0.137300
      3 C17         -5.4320    -0.7220    -1.6760 c6         1 4US       0.137300
      4 C16         -4.3930    -1.0480    -0.5660 c6         1 4US       0.092500
      5 C15          3.5370     1.5920    -0.7270 cp         1 4US      -0.041000
      6 C19         -5.8580     0.0620     1.0910 c6         1 4US       0.092500
      7 C20         -7.8200    -0.3530    -2.1930 c3         1 4US       0.152100
      8 C21          3.8700     2.0730    -2.0150 ca         1 4US      -0.089000
      9 C22          4.0760     3.4440    -2.2430 ca         1 4US      -0.112000
     10 C23          3.9620     4.3570    -1.1830 ca         1 4US      -0.098000
     11 C24          3.6470     3.8970     0.1070 ca         1 4US      -0.108000
     12 C11         -2.0440     0.6150     0.4900 ca         1 4US      -0.110600
     13 C12         -1.1580     1.6600     0.1030 ca         1 4US      -0.109000
     14 C1           1.9420    -1.8150     0.1500 ca         1 4US       0.051800
     15 C2           2.0510    -0.4550    -0.1160 cq         1 4US      -0.086000
     16 C3           3.3250     0.1340    -0.5100 cp         1 4US       0.051000
     17 C4           4.4210    -0.7480    -0.6520 ca         1 4US      -0.149000
     18 C5           4.2780    -2.1340    -0.3890 ca         1 4US      -0.049000
     19 C6           3.0350    -2.6970     0.0260 ca         1 4US      -0.189600
     20 C7           2.8740    -4.1720     0.3150 c          1 4US       0.632700
     21 O1           1.8170    -4.6690     0.6690 o          1 4US      -0.640100
     22 N1           3.9520    -4.9710     0.1740 nt         1 4US      -0.597000
     23 N2           0.6090    -2.0580     0.5000 na         1 4US      -0.211600
     24 C8          -0.1620    -0.8970     0.4320 ca         1 4US      -0.012200
     25 C9           0.6990     0.1160     0.0470 cq         1 4US      -0.072000
     26 C10         -1.5240    -0.6930     0.6720 ca         1 4US      -0.112000
     27 C14         -3.5040     0.9340     0.7510 c          1 4US       0.612700
     28 O2          -3.8300     2.0310     1.1910 o          1 4US      -0.593100
     29 N3          -4.4660    -0.0870     0.5760 n          1 4US      -0.401800
     30 N4          -6.8170    -0.6100    -1.1370 n3         1 4US      -0.715600
     31 C25          3.4400     2.5260     0.3390 ca         1 4US       0.131000
     32 Cl1          3.0790     2.0050     1.9850 cl         1 4US      -0.184000
     33 H8           0.8580     2.2340    -0.4500 ha         1 4US       0.125000
     34 H14         -7.8810     0.4330     0.3970 h1         1 4US       0.041200
     35 H13         -6.6480     1.3990    -0.4280 h1         1 4US       0.041200
     36 H12         -5.1390     0.2210    -2.1620 h1         1 4US       0.041200
     37 H11         -5.3830    -1.5080    -2.4440 h1         1 4US       0.041200
     38 H10         -4.5760    -2.0640    -0.1880 h1         1 4US       0.065450
     39 H9          -3.3970    -1.0440    -1.0270 h1         1 4US       0.065450
     40 H16         -5.9050     0.8390     1.8660 h1         1 4US       0.065450
     41 H15         -6.1570    -0.8810     1.5690 h1         1 4US       0.065450
     42 H18         -7.7900    -1.1410    -2.9570 h1         1 4US       0.032033
     43 H17         -8.8330    -0.3320    -1.7690 h1         1 4US       0.032033
     44 H19         -7.6330     0.6110    -2.6850 h1         1 4US       0.032033
     45 H20          3.9580     1.3730    -2.8430 ha         1 4US       0.122000
     46 H21          4.3250     3.7980    -3.2420 ha         1 4US       0.119000
     47 H22          4.1230     5.4190    -1.3580 ha         1 4US       0.119000
     48 H23          3.5680     4.6020     0.9310 ha         1 4US       0.132000
     49 H7          -1.5430     2.6690    -0.0290 ha         1 4US       0.127000
     50 H1           5.3910    -0.3560    -0.9460 ha         1 4US       0.122000
     51 H2           5.1570    -2.7630    -0.5060 ha         1 4US       0.107000
     52 H3           4.8360    -4.5860    -0.1160 hn         1 4US       0.316000
     53 H4           3.8580    -5.9570     0.3640 hn         1 4US       0.316000
     54 H5           0.2580    -2.9750     0.7560 hn         1 4US       0.386000
     55 H6          -2.1520    -1.5180     1.0010 ha         1 4US       0.128000
@<TRIPOS>BOND
     1     1    13 ar  
     2     1    25 2   
     3     1    33 1   
     4     2     6 1   
     5     2    30 1   
     6     2    34 1   
     7     2    35 1   
     8     3     4 1   
     9     3    30 1   
    10     3    36 1   
    11     3    37 1   
    12     4    29 1   
    13     4    38 1   
    14     4    39 1   
    15     5     8 ar  
    16     5    16 1   
    17     5    31 ar  
    18     6    29 1   
    19     6    40 1   
    20     6    41 1   
    21     7    30 1   
    22     7    42 1   
    23     7    43 1   
    24     7    44 1   
    25     8     9 ar  
    26     8    45 1   
    27     9    10 ar  
    28     9    46 1   
    29    10    11 ar  
    30    10    47 1   
    31    11    31 ar  
    32    11    48 1   
    33    12    13 ar  
    34    12    26 ar  
    35    12    27 1   
    36    13    49 1   
    37    14    15 1   
    38    14    19 ar  
    39    14    23 1   
    40    15    16 2   
    41    15    25 1   
    42    16    17 ar  
    43    17    18 ar  
    44    17    50 1   
    45    18    19 ar  
    46    18    51 1   
    47    19    20 1   
    48    20    21 2   
    49    20    22 1   
    50    22    52 1   
    51    22    53 1   
    52    23    24 1   
    53    23    54 1   
    54    24    25 1   
    55    24    26 ar  
    56    26    55 1   
    57    27    28 2   
    58    27    29 1   
    59    31    32 1   
@<TRIPOS>SUBSTRUCTURE
     1 4US         1 TEMP              0 ****  ****    0 ROOT
