@<TRIPOS>MOLECULE
4UT
   63    67     1     0     0
SMALL
No Charge or Current Charge


@<TRIPOS>ATOM
      1 C10         -2.3790    -1.6170    -0.1550 ca         1 4UT      -0.219600
      2 C17          3.5980    -2.2030    -0.1240 ca         1 4UT      -0.048000
      3 C20          6.5160     0.2480     0.2200 cp         1 4UT       0.002000
      4 C21          7.5570    -0.4810     0.8490 ca         1 4UT      -0.137000
      5 C22          8.8590     0.0380     0.9330 ca         1 4UT      -0.075000
      6 C24          8.1360     2.0440    -0.2430 ca         1 4UT       0.137100
      7 C26          9.6580     3.9140    -0.7740 c3         1 4UT       0.149900
      8 C28          3.9890     0.5520     0.2150 ca         1 4UT      -0.128000
      9 C01        -11.0500     2.4560    -0.7680 c3         1 4UT      -0.091100
     10 N03         -8.6740     1.9740     0.0070 n3         1 4UT      -0.712600
     11 C04         -7.7210     2.0550     1.1570 c6         1 4UT       0.152800
     12 C05         -6.2410     1.7550     0.7520 c6         1 4UT       0.209300
     13 N06         -6.0990     0.4490     0.0320 nh         1 4UT      -0.795400
     14 C07         -4.8570    -0.2230    -0.0290 ca         1 4UT       0.364000
     15 C08         -4.8270    -1.6160    -0.1960 ca         1 4UT      -0.202000
     16 C09         -3.6060    -2.3080    -0.2580 ca         1 4UT      -0.017000
     17 C11         -1.0840    -2.3980    -0.2280 c          1 4UT       0.637700
     18 O12         -1.0710    -3.6140    -0.3760 o          1 4UT      -0.611100
     19 N13          0.0870    -1.6750    -0.1200 ns         1 4UT      -0.398100
     20 C14          1.3850    -2.1620    -0.1570 cc         1 4UT       0.057500
     21 N15          1.8240    -3.4670    -0.3090 na         1 4UT       0.005500
     22 N16          3.2260    -3.5440    -0.2950 nc         1 4UT      -0.281400
     23 C18          4.9060    -1.7020    -0.0410 ca         1 4UT      -0.072000
     24 C19          5.1260    -0.3050     0.1310 cp         1 4UT      -0.024000
     25 C23          9.1530     1.2980     0.3890 ca         1 4UT      -0.196000
     26 O25          8.3630     3.2870    -0.7990 os         1 4UT      -0.344100
     27 C27          6.8360     1.5180    -0.3210 ca         1 4UT      -0.137000
     28 C29          2.6790     0.0420     0.1320 ca         1 4UT      -0.052000
     29 C30          2.5310    -1.3400    -0.0380 ca         1 4UT      -0.191000
     30 C31         -2.4120    -0.2120     0.0140 ca         1 4UT      -0.017000
     31 C32         -3.6390     0.4700     0.0760 ca         1 4UT      -0.202000
     32 C33         -7.0840     0.2980    -1.0860 c6         1 4UT       0.209300
     33 C34         -8.5480     0.6310    -0.6480 c6         1 4UT       0.152800
     34 H1           7.3500    -1.4530     1.2890 ha         1 4UT       0.119000
     35 H2           9.6410    -0.5380     1.4240 ha         1 4UT       0.111000
     36 H3           9.6170     4.8920    -1.2690 h1         1 4UT       0.039367
     37 H4           9.9960     4.0700     0.2590 h1         1 4UT       0.039367
     38 H5          10.4000     3.2980    -1.2990 h1         1 4UT       0.039367
     39 H6           4.1250     1.6210     0.3600 ha         1 4UT       0.114000
     40 H7         -10.6690     3.1610    -1.5160 hc         1 4UT       0.039367
     41 H8         -11.2290     1.4900    -1.2530 hc         1 4UT       0.039367
     42 H9         -12.0130     2.8320    -0.4040 hc         1 4UT       0.039367
     43 H10        -10.0500     3.2830     0.9370 h1         1 4UT       0.031700
     44 H11        -10.4480     1.5720     1.1090 h1         1 4UT       0.031700
     45 H13         -7.7580     3.0560     1.6120 h1         1 4UT       0.042950
     46 H14         -8.0160     1.3400     1.9390 h1         1 4UT       0.042950
     47 H15         -5.8800     2.5740     0.1130 h1         1 4UT       0.049950
     48 H16         -5.6280     1.7550     1.6650 h1         1 4UT       0.049950
     49 H17         -5.7570    -2.1720    -0.2640 ha         1 4UT       0.118000
     50 H18         -3.6210    -3.3890    -0.3850 ha         1 4UT       0.119500
     51 H19         -0.0390    -0.6810    -0.0000 hn         1 4UT       0.340500
     52 H20          1.2380    -4.2890    -0.4200 hn         1 4UT       0.401000
     53 H21          5.7460    -2.3870    -0.1230 ha         1 4UT       0.129000
     54 H22         10.1680     1.6760     0.4670 ha         1 4UT       0.115000
     55 H23          6.0690     2.1010    -0.8230 ha         1 4UT       0.128000
     56 H24          1.8180     0.7030     0.2010 ha         1 4UT       0.103000
     57 H25         -1.4990     0.3730     0.0970 ha         1 4UT       0.119500
     58 H26         -3.6320     1.5490     0.1950 ha         1 4UT       0.118000
     59 H27         -6.8060     0.9670    -1.9130 h1         1 4UT       0.049950
     60 H28         -7.0710    -0.7270    -1.4840 h1         1 4UT       0.049950
     61 H29         -8.8910    -0.1550     0.0410 h1         1 4UT       0.042950
     62 H30         -9.1850     0.5720    -1.5420 h1         1 4UT       0.042950
     63 C02        -10.0590     2.3210     0.4060 c3         1 4UT       0.166800
@<TRIPOS>BOND
     1     1    16 ar  
     2     1    17 1   
     3     1    30 ar  
     4     2    22 2   
     5     2    23 ar  
     6     2    29 ar  
     7     3     4 ar  
     8     3    24 1   
     9     3    27 ar  
    10     4     5 ar  
    11     4    34 1   
    12     5    25 ar  
    13     5    35 1   
    14     6    25 ar  
    15     6    26 1   
    16     6    27 ar  
    17     7    26 1   
    18     7    36 1   
    19     7    37 1   
    20     7    38 1   
    21     8    24 ar  
    22     8    28 ar  
    23     8    39 1   
    24     9    40 1   
    25     9    41 1   
    26     9    42 1   
    27     9    63 1   
    28    10    11 1   
    29    10    33 1   
    30    10    63 1   
    31    11    12 1   
    32    11    45 1   
    33    11    46 1   
    34    12    13 1   
    35    12    47 1   
    36    12    48 1   
    37    13    14 1   
    38    13    32 1   
    39    14    15 ar  
    40    14    31 ar  
    41    15    16 ar  
    42    15    49 1   
    43    16    50 1   
    44    17    18 2   
    45    17    19 1   
    46    19    20 1   
    47    19    51 1   
    48    20    21 1   
    49    20    29 2   
    50    21    22 1   
    51    21    52 1   
    52    23    24 ar  
    53    23    53 1   
    54    25    54 1   
    55    27    55 1   
    56    28    29 ar  
    57    28    56 1   
    58    30    31 ar  
    59    30    57 1   
    60    31    58 1   
    61    32    33 1   
    62    32    59 1   
    63    32    60 1   
    64    33    61 1   
    65    33    62 1   
    66    43    63 1   
    67    44    63 1   
@<TRIPOS>SUBSTRUCTURE
     1 4UT         1 TEMP              0 ****  ****    0 ROOT
