@<TRIPOS>MOLECULE
4UT
   63    67     1     0     0
SMALL
bcc


@<TRIPOS>ATOM
      1 C10         -2.3780    -1.2790    -0.4730 ca         1 4UT      -0.219600
      2 C17          3.5330    -1.9140    -0.3550 ca         1 4UT      -0.048000
      3 C20          6.5930     0.1680     0.3260 cp         1 4UT       0.002000
      4 C21          7.5240    -0.6850     0.9260 ca         1 4UT      -0.155000
      5 C22          8.8380    -0.2760     1.0730 ca         1 4UT      -0.093000
      6 C24          8.3360     1.8270     0.0340 ca         1 4UT       0.137100
      7 C26          9.9610     3.5150    -0.3460 c3         1 4UT       0.126700
      8 C28          4.1390     0.7010     0.3550 ca         1 4UT      -0.146000
      9 C01        -11.2640     1.7450    -0.2150 c3         1 4UT      -0.091100
     10 N03         -8.7810     1.7230    -0.0740 n3         1 4UT      -0.712600
     11 C04         -7.6250     2.4010     0.4690 c6         1 4UT       0.152800
     12 C05         -6.3400     1.9280    -0.1840 c6         1 4UT       0.209300
     13 N06         -6.1940     0.4860    -0.0910 nh         1 4UT      -0.657000
     14 C07         -4.9570    -0.0850    -0.2500 ca         1 4UT       0.225600
     15 C08         -4.7890    -1.4840    -0.3360 ca         1 4UT      -0.220000
     16 C09         -3.5400    -2.0530    -0.4440 ca         1 4UT      -0.035000
     17 C11         -1.0800    -1.9660    -0.5880 c          1 4UT       0.704700
     18 O12         -0.9850    -3.1470    -0.8940 o          1 4UT      -0.611100
     19 N13          0.0320    -1.2200    -0.3180 ns         1 4UT      -0.465100
     20 C14          1.3300    -1.6690    -0.3870 cc         1 4UT       0.057500
     21 N15          1.7150    -2.9100    -0.7020 na         1 4UT       0.055800
     22 N16          3.0370    -3.1020    -0.6970 nc         1 4UT      -0.281400
     23 C18          4.8890    -1.5460    -0.1990 ca         1 4UT      -0.090000
     24 C19          5.1860    -0.2540     0.1530 cp         1 4UT      -0.024000
     25 C23          9.2590     0.9740     0.6320 ca         1 4UT      -0.214000
     26 O25          8.6290     3.0540    -0.4400 os         1 4UT      -0.320900
     27 C27          7.0090     1.4190    -0.1130 ca         1 4UT      -0.155000
     28 C29          2.8220     0.3700     0.2150 ca         1 4UT      -0.070000
     29 C30          2.5060    -0.9550    -0.1460 ca         1 4UT      -0.191000
     30 C31         -2.5360     0.1060    -0.4190 ca         1 4UT      -0.035000
     31 C32         -3.7810     0.6910    -0.3200 ca         1 4UT      -0.220000
     32 C33         -7.3880    -0.2380    -0.5000 c6         1 4UT       0.209300
     33 C34         -8.6340     0.3040     0.1700 c6         1 4UT       0.152800
     34 H1           7.2160    -1.6530     1.2990 ha         1 4UT       0.137000
     35 H2           9.5540    -0.9340     1.5460 ha         1 4UT       0.129000
     36 H3           9.9800     4.5000    -0.8060 h1         1 4UT       0.039367
     37 H4          10.2900     3.6060     0.6930 h1         1 4UT       0.039367
     38 H5          10.6590     2.8640    -0.8790 h1         1 4UT       0.039367
     39 H6           4.4030     1.7080     0.6520 ha         1 4UT       0.132000
     40 H7         -11.2110     1.9030    -1.2930 hc         1 4UT       0.039367
     41 H8         -11.4250     0.6820    -0.0360 hc         1 4UT       0.039367
     42 H9         -12.1390     2.2730     0.1610 hc         1 4UT       0.039367
     43 H10         -9.9720     3.3550     0.3410 h1         1 4UT       0.031700
     44 H11        -10.0870     2.0920     1.5570 h1         1 4UT       0.031700
     45 H13         -7.7150     3.4750     0.2910 h1         1 4UT       0.042950
     46 H14         -7.5460     2.2610     1.5610 h1         1 4UT       0.042950
     47 H15         -6.3120     2.2540    -1.2320 h1         1 4UT       0.049950
     48 H16         -5.5210     2.4200     0.3360 h1         1 4UT       0.049950
     49 H17         -5.6360    -2.1510    -0.3090 ha         1 4UT       0.136000
     50 H18         -3.4680    -3.1310    -0.4970 ha         1 4UT       0.137500
     51 H19         -0.0780    -0.2760     0.0150 hn         1 4UT       0.340500
     52 H20          1.0890    -3.6680    -0.9330 hn         1 4UT       0.350700
     53 H21          5.6700    -2.2750    -0.3780 ha         1 4UT       0.147000
     54 H22         10.2940     1.2590     0.7640 ha         1 4UT       0.133000
     55 H23          6.3100     2.0910    -0.5980 ha         1 4UT       0.146000
     56 H24          2.0510     1.1110     0.3840 ha         1 4UT       0.121000
     57 H25         -1.6880     0.7770    -0.4870 ha         1 4UT       0.137500
     58 H26         -3.8220     1.7690    -0.3120 ha         1 4UT       0.136000
     59 H27         -7.5060    -0.1880    -1.5910 h1         1 4UT       0.049950
     60 H28         -7.3080    -1.2870    -0.2300 h1         1 4UT       0.049950
     61 H29         -8.5950     0.0810     1.2510 h1         1 4UT       0.042950
     62 H30         -9.4860    -0.2400    -0.2400 h1         1 4UT       0.042950
     63 C02        -10.0130     2.2700     0.4700 c3         1 4UT       0.166800
@<TRIPOS>BOND
     1     1    16 ar  
     2     1    17 1   
     3     1    30 ar  
     4     2    22 2   
     5     2    23 ar  
     6     2    29 ar  
     7     3     4 ar  
     8     3    24 1   
     9     3    27 ar  
    10     4     5 ar  
    11     4    34 1   
    12     5    25 ar  
    13     5    35 1   
    14     6    25 ar  
    15     6    26 1   
    16     6    27 ar  
    17     7    26 1   
    18     7    36 1   
    19     7    37 1   
    20     7    38 1   
    21     8    24 ar  
    22     8    28 ar  
    23     8    39 1   
    24     9    40 1   
    25     9    41 1   
    26     9    42 1   
    27     9    63 1   
    28    10    11 1   
    29    10    33 1   
    30    10    63 1   
    31    11    12 1   
    32    11    45 1   
    33    11    46 1   
    34    12    13 1   
    35    12    47 1   
    36    12    48 1   
    37    13    14 1   
    38    13    32 1   
    39    14    15 ar  
    40    14    31 ar  
    41    15    16 ar  
    42    15    49 1   
    43    16    50 1   
    44    17    18 2   
    45    17    19 1   
    46    19    20 1   
    47    19    51 1   
    48    20    21 1   
    49    20    29 2   
    50    21    22 1   
    51    21    52 1   
    52    23    24 ar  
    53    23    53 1   
    54    25    54 1   
    55    27    55 1   
    56    28    29 ar  
    57    28    56 1   
    58    30    31 ar  
    59    30    57 1   
    60    31    58 1   
    61    32    33 1   
    62    32    59 1   
    63    32    60 1   
    64    33    61 1   
    65    33    62 1   
    66    43    63 1   
    67    44    63 1   
@<TRIPOS>SUBSTRUCTURE
     1 4UT         1 TEMP              0 ****  ****    0 ROOT
