@<TRIPOS>MOLECULE
4UX
   80    83     1     0     0
SMALL
abcg2


@<TRIPOS>ATOM
      1 N1           9.4970     0.5680     1.3290 nv         1 4UX      -1.092000
      2 C2           8.1520     0.6720     1.1740 ca         1 4UX       0.373000
      3 C4           5.9220    -0.1520     1.6240 ca         1 4UX       0.041500
      4 C6           6.2190     1.8790     0.3590 ca         1 4UX       0.041500
      5 C7           7.5870     1.7520     0.4760 ca         1 4UX      -0.219500
      6 O10          3.3270     2.3880     0.2700 o          1 4UX      -0.545000
      7 N11          3.2720    -0.1100    -0.3490 n3         1 4UX      -0.761500
      8 C13          4.3480    -1.2030    -2.3180 c3         1 4UX      -0.068700
      9 C14          4.8180    -0.8970    -3.7360 c3         1 4UX      -0.087600
     10 C15          5.4710    -1.8000    -1.4800 c3         1 4UX      -0.087600
     11 C16          2.0230    -0.8410    -0.1810 c3         1 4UX       0.185800
     12 C17          0.7440    -0.0140    -0.3100 c3         1 4UX       0.123300
     13 O18          0.6100     0.6110    -1.5670 oh         1 4UX      -0.645000
     14 C21         -2.5790     0.0040     1.0330 c          1 4UX       0.646100
     15 O28         -6.3010     2.7750    -0.6870 os         1 4UX      -0.425000
     16 C29         -5.6960     1.7230    -1.4290 c5         1 4UX       0.161600
     17 C30         -6.0650     0.4400    -0.6850 c5         1 4UX       0.148500
     18 C31         -6.0660     0.9200     0.7670 c5         1 4UX      -0.140700
     19 C3           7.2860    -0.2780     1.7480 ca         1 4UX      -0.219500
     20 C5           5.3790     0.9270     0.9270 ca         1 4UX      -0.348500
     21 S8           3.6400     1.0520     0.7680 sy         1 4UX       1.174600
     22 O9           3.0080     0.6270     2.0140 o          1 4UX      -0.545000
     23 C12          3.8000     0.0820    -1.6990 c3         1 4UX       0.216800
     24 C19         -0.4970    -0.8460     0.0510 c3         1 4UX       0.098700
     25 N20         -1.6590     0.0110     0.0490 ns         1 4UX      -0.485900
     26 O22         -2.4550    -0.5270     2.1150 o          1 4UX      -0.536000
     27 O23         -3.6620     0.6980     0.6540 os         1 4UX      -0.458100
     28 C24         -4.7580     0.8020     1.5560 c5         1 4UX       0.161300
     29 C25         -4.7210     2.1400     2.2730 c5         1 4UX       0.138600
     30 O26         -5.2450     3.0630     1.3400 os         1 4UX      -0.460000
     31 C27         -6.3110     2.4400     0.6570 c5         1 4UX       0.382300
     32 C33         -1.9160    -3.7800     0.5000 ca         1 4UX      -0.100000
     33 C34         -3.0650    -4.4580     0.8810 ca         1 4UX      -0.108000
     34 C35         -4.2750    -4.1850     0.2560 ca         1 4UX      -0.106000
     35 C36         -4.3240    -3.2330    -0.7530 ca         1 4UX      -0.108000
     36 C37         -3.1710    -2.5580    -1.1310 ca         1 4UX      -0.100000
     37 C38         -1.9530    -2.8210    -0.5090 ca         1 4UX      -0.085300
     38 H1           9.8800    -0.3150     1.6200 hn         1 4UX       0.473000
     39 H2          10.0920     1.0980     0.7160 hn         1 4UX       0.473000
     40 H3           5.2810    -0.9030     2.0670 ha         1 4UX       0.132500
     41 H4           5.8110     2.7240    -0.1790 ha         1 4UX       0.132500
     42 H5           8.2320     2.4970     0.0260 ha         1 4UX       0.116500
     43 H6           3.5420    -1.9410    -2.3910 hc         1 4UX       0.043700
     44 H7           5.6450    -0.1830    -3.7310 hc         1 4UX       0.035867
     45 H8           5.1680    -1.8020    -4.2340 hc         1 4UX       0.035867
     46 H9           4.0160    -0.4740    -4.3430 hc         1 4UX       0.035867
     47 H10          6.3020    -1.0980    -1.3840 hc         1 4UX       0.035867
     48 H11          5.1360    -2.0490    -0.4740 hc         1 4UX       0.035867
     49 H12          5.8520    -2.7120    -1.9420 hc         1 4UX       0.035867
     50 H13          2.0410    -1.6410    -0.9250 h1         1 4UX       0.067700
     51 H14          2.0250    -1.3440     0.7870 h1         1 4UX       0.067700
     52 H15          0.7800     0.8030     0.4150 h1         1 4UX       0.105700
     53 H16          0.6630    -0.0510    -2.2640 ho         1 4UX       0.434000
     54 H17         -6.0830     1.7640    -2.4480 h1         1 4UX       0.057700
     55 H18         -4.6090     1.8440    -1.4800 h1         1 4UX       0.057700
     56 H19         -5.3110    -0.3400    -0.8610 h1         1 4UX       0.049700
     57 H20         -6.8530     0.4330     1.3450 hc         1 4UX       0.078700
     58 H23          7.6990    -1.1200     2.2890 ha         1 4UX       0.116500
     59 H24          3.0430     0.5260    -2.3490 h1         1 4UX       0.052700
     60 H25          4.6210     0.8030    -1.6580 h1         1 4UX       0.052700
     61 H26         -0.3620    -1.2110     1.0700 h1         1 4UX       0.098700
     62 H27         -1.9060     0.4530    -0.8240 hn         1 4UX       0.330500
     63 H28         -4.7690    -0.0430     2.2420 h1         1 4UX       0.087700
     64 H29         -5.3380     2.0880     3.1790 h1         1 4UX       0.064200
     65 H30         -3.7180     2.4540     2.5650 h1         1 4UX       0.064200
     66 H31         -7.2650     2.7700     1.0840 h2         1 4UX       0.084700
     67 H32         -0.9760    -4.0000     0.9930 ha         1 4UX       0.110000
     68 H33         -3.0160    -5.2030     1.6650 ha         1 4UX       0.112000
     69 H34         -5.1720    -4.7150     0.5490 ha         1 4UX       0.113000
     70 H35         -5.2610    -3.0190    -1.2520 ha         1 4UX       0.112000
     71 H36         -3.2190    -1.8210    -1.9250 ha         1 4UX       0.110000
     72 H39         -7.2980     0.0630    -3.1450 h1         1 4UX       0.030033
     73 H40         -6.7210    -1.4600    -2.4690 h1         1 4UX       0.030033
     74 H41         -8.4490    -1.0840    -2.4860 h1         1 4UX       0.030033
     75 C32         -0.7160    -2.0540    -0.8780 c3         1 4UX      -0.059100
     76 N51         -7.4000    -0.0050    -1.0460 n7         1 4UX      -0.853400
     77 C52         -7.4580    -0.6550    -2.3400 c3         1 4UX       0.143100
     78 H21         -0.7960    -1.7160    -1.9160 hc         1 4UX       0.049700
     79 H22          0.1530    -2.7130    -0.8260 hc         1 4UX       0.049700
     80 H37         -7.7190    -0.6630    -0.3470 hn         1 4UX       0.407000
@<TRIPOS>BOND
     1     1     2 1   
     2     1    38 1   
     3     1    39 1   
     4     2     5 ar  
     5     2    19 ar  
     6     3    19 ar  
     7     3    20 ar  
     8     3    40 1   
     9     4     5 ar  
    10     4    20 ar  
    11     4    41 1   
    12     5    42 1   
    13     6    21 2   
    14     7    11 1   
    15     7    21 1   
    16     7    23 1   
    17     8     9 1   
    18     8    10 1   
    19     8    23 1   
    20     8    43 1   
    21     9    44 1   
    22     9    45 1   
    23     9    46 1   
    24    10    47 1   
    25    10    48 1   
    26    10    49 1   
    27    11    12 1   
    28    11    50 1   
    29    11    51 1   
    30    12    13 1   
    31    12    24 1   
    32    12    52 1   
    33    13    53 1   
    34    14    25 1   
    35    14    26 2   
    36    14    27 1   
    37    15    16 1   
    38    15    31 1   
    39    16    17 1   
    40    16    54 1   
    41    16    55 1   
    42    17    18 1   
    43    17    56 1   
    44    17    76 1   
    45    18    28 1   
    46    18    31 1   
    47    18    57 1   
    48    19    58 1   
    49    20    21 1   
    50    21    22 2   
    51    23    59 1   
    52    23    60 1   
    53    24    25 1   
    54    24    61 1   
    55    24    75 1   
    56    25    62 1   
    57    27    28 1   
    58    28    29 1   
    59    28    63 1   
    60    29    30 1   
    61    29    64 1   
    62    29    65 1   
    63    30    31 1   
    64    31    66 1   
    65    32    33 ar  
    66    32    37 ar  
    67    32    67 1   
    68    33    34 ar  
    69    33    68 1   
    70    34    35 ar  
    71    34    69 1   
    72    35    36 ar  
    73    35    70 1   
    74    36    37 ar  
    75    36    71 1   
    76    37    75 1   
    77    72    77 1   
    78    73    77 1   
    79    74    77 1   
    80    75    78 1   
    81    75    79 1   
    82    76    77 1   
    83    76    80 1   
@<TRIPOS>SUBSTRUCTURE
     1 4UX         1 TEMP              0 ****  ****    0 ROOT
