@<TRIPOS>MOLECULE
4UX
   80    83     1     0     0
SMALL
No Charge or Current Charge


@<TRIPOS>ATOM
      1 N1           9.3800     1.7320     0.8550 nv         1 4UX      -1.092000
      2 C2           8.0470     1.4580     0.9560 ca         1 4UX       0.373000
      3 C4           6.2520    -0.1320     1.3440 ca         1 4UX       0.041500
      4 C6           5.7350     2.2050     0.8730 ca         1 4UX       0.041500
      5 C7           7.1090     2.4800     0.7720 ca         1 4UX      -0.219500
      6 O10          2.7490     1.7030     1.0080 o          1 4UX      -0.545000
      7 N11          3.3450    -0.5670    -0.0280 n3         1 4UX      -0.761500
      8 C13          4.0060    -1.0760    -2.4550 c3         1 4UX      -0.068700
      9 C14          4.3550    -0.3970    -3.7980 c3         1 4UX      -0.087600
     10 C15          5.1090    -2.0810    -2.0400 c3         1 4UX      -0.087600
     11 C16          2.0860    -1.3690     0.0130 c3         1 4UX       0.185800
     12 C17          0.7410    -0.6280    -0.3060 c3         1 4UX       0.123300
     13 O18          0.6060    -0.3440    -1.7190 oh         1 4UX      -0.645000
     14 C21         -2.7050    -0.3900     0.9090 c          1 4UX       0.646100
     15 O28         -5.6370     3.3700    -0.7730 os         1 4UX      -0.425000
     16 C29         -5.0700     2.3250    -1.5900 c5         1 4UX       0.161600
     17 C30         -5.8760     1.0480    -1.1690 c5         1 4UX       0.148500
     18 C31         -6.0250     1.2820     0.3720 c5         1 4UX      -0.140700
     19 C3           7.6230     0.1560     1.2410 ca         1 4UX      -0.219500
     20 C5           5.3080     0.8950     1.1620 ca         1 4UX      -0.348500
     21 S8           3.5590     0.5100     1.2750 sy         1 4UX       1.174600
     22 O9           3.3810    -0.2940     2.4880 o          1 4UX      -0.545000
     23 C12          3.7350    -0.0170    -1.3510 c3         1 4UX       0.216800
     24 C19         -0.5140    -1.4050     0.2000 c3         1 4UX       0.098700
     25 N20         -1.7260    -0.6050    -0.0170 ns         1 4UX      -0.485900
     26 O22         -2.6790    -0.7830     2.0650 o          1 4UX      -0.536000
     27 O23         -3.7090     0.3210     0.3150 os         1 4UX      -0.458100
     28 C24         -4.8350     0.6410     1.1850 c5         1 4UX       0.161300
     29 C25         -4.4330     1.8230     2.1150 c5         1 4UX       0.138600
     30 O26         -4.5700     2.9750     1.2620 os         1 4UX      -0.460000
     31 C27         -5.8110     2.8230     0.5480 c5         1 4UX       0.382300
     32 C33         -1.8820    -4.1920     1.3760 ca         1 4UX      -0.100000
     33 C34         -3.0220    -4.8470     1.8740 ca         1 4UX      -0.108000
     34 C35         -4.2080    -4.8640     1.1210 ca         1 4UX      -0.106000
     35 C36         -4.2530    -4.2270    -0.1300 ca         1 4UX      -0.108000
     36 C37         -3.1130    -3.5730    -0.6290 ca         1 4UX      -0.100000
     37 C38         -1.9210    -3.5510     0.1220 ca         1 4UX      -0.085300
     38 H1          10.0410     0.9600     0.8000 hn         1 4UX       0.473000
     39 H2           9.6770     2.6240     0.4650 hn         1 4UX       0.473000
     40 H3           5.9260    -1.1500     1.5580 ha         1 4UX       0.132500
     41 H4           5.0150     3.0080     0.7240 ha         1 4UX       0.132500
     42 H5           7.4390     3.4910     0.5510 ha         1 4UX       0.116500
     43 H6           3.0860    -1.6460    -2.6230 hc         1 4UX       0.043700
     44 H7           5.2780     0.1890    -3.7130 hc         1 4UX       0.035867
     45 H8           4.4950    -1.1450    -4.5870 hc         1 4UX       0.035867
     46 H9           3.5480     0.2770    -4.1120 hc         1 4UX       0.035867
     47 H10          6.0540    -1.5610    -1.8410 hc         1 4UX       0.035867
     48 H11          4.8220    -2.6280    -1.1340 hc         1 4UX       0.035867
     49 H12          5.2820    -2.8160    -2.8350 hc         1 4UX       0.035867
     50 H13          2.1740    -2.2230    -0.6710 h1         1 4UX       0.067700
     51 H14          1.9850    -1.8210     1.0090 h1         1 4UX       0.067700
     52 H15          0.7490     0.3170     0.2520 h1         1 4UX       0.105700
     53 H16          0.6610    -1.1950    -2.2020 ho         1 4UX       0.434000
     54 H17         -5.1690     2.5790    -2.6530 h1         1 4UX       0.057700
     55 H18         -4.0010     2.2290    -1.3570 h1         1 4UX       0.057700
     56 H19         -5.3750     0.1050    -1.4310 h1         1 4UX       0.049700
     57 H20         -6.9920     0.9610     0.7730 hc         1 4UX       0.078700
     58 H23          8.3500    -0.6390     1.3810 ha         1 4UX       0.116500
     59 H24          2.9700     0.6860    -1.7070 h1         1 4UX       0.052700
     60 H25          4.6590     0.5690    -1.2600 h1         1 4UX       0.052700
     61 H26         -0.3890    -1.5330     1.2850 h1         1 4UX       0.098700
     62 H27         -1.8800    -0.1970    -0.9290 hn         1 4UX       0.330500
     63 H28         -5.1530    -0.2560     1.7360 h1         1 4UX       0.087700
     64 H29         -5.1220     1.9170     2.9660 h1         1 4UX       0.064200
     65 H30         -3.4070     1.7560     2.4980 h1         1 4UX       0.064200
     66 H31         -6.6380     3.3080     1.0840 h2         1 4UX       0.084700
     67 H32         -0.9690    -4.1780     1.9680 ha         1 4UX       0.110000
     68 H33         -2.9860    -5.3380     2.8430 ha         1 4UX       0.112000
     69 H34         -5.0910    -5.3700     1.5070 ha         1 4UX       0.113000
     70 H35         -5.1720    -4.2380    -0.7130 ha         1 4UX       0.112000
     71 H36         -3.1600    -3.0770    -1.5950 ha         1 4UX       0.110000
     72 H39         -6.8110     1.5470    -3.7820 h1         1 4UX       0.030033
     73 H40         -6.9770    -0.1890    -3.4270 h1         1 4UX       0.030033
     74 H41         -8.4190     0.8470    -3.5090 h1         1 4UX       0.030033
     75 C32         -0.6870    -2.8260    -0.4070 c3         1 4UX      -0.059100
     76 N51         -7.2580     1.0880    -1.7430 n7         1 4UX      -0.853400
     77 C52         -7.3680     0.8090    -3.1900 c3         1 4UX       0.143100
     78 H21         -0.7430    -2.7530    -1.5000 hc         1 4UX       0.049700
     79 H22          0.2020    -3.4290    -0.1890 hc         1 4UX       0.049700
     80 H37         -7.8340     0.3910    -1.2550 hn         1 4UX       0.407000
@<TRIPOS>BOND
     1     1     2 1   
     2     1    38 1   
     3     1    39 1   
     4     2     5 ar  
     5     2    19 ar  
     6     3    19 ar  
     7     3    20 ar  
     8     3    40 1   
     9     4     5 ar  
    10     4    20 ar  
    11     4    41 1   
    12     5    42 1   
    13     6    21 2   
    14     7    11 1   
    15     7    21 1   
    16     7    23 1   
    17     8     9 1   
    18     8    10 1   
    19     8    23 1   
    20     8    43 1   
    21     9    44 1   
    22     9    45 1   
    23     9    46 1   
    24    10    47 1   
    25    10    48 1   
    26    10    49 1   
    27    11    12 1   
    28    11    50 1   
    29    11    51 1   
    30    12    13 1   
    31    12    24 1   
    32    12    52 1   
    33    13    53 1   
    34    14    25 1   
    35    14    26 2   
    36    14    27 1   
    37    15    16 1   
    38    15    31 1   
    39    16    17 1   
    40    16    54 1   
    41    16    55 1   
    42    17    18 1   
    43    17    56 1   
    44    17    76 1   
    45    18    28 1   
    46    18    31 1   
    47    18    57 1   
    48    19    58 1   
    49    20    21 1   
    50    21    22 2   
    51    23    59 1   
    52    23    60 1   
    53    24    25 1   
    54    24    61 1   
    55    24    75 1   
    56    25    62 1   
    57    27    28 1   
    58    28    29 1   
    59    28    63 1   
    60    29    30 1   
    61    29    64 1   
    62    29    65 1   
    63    30    31 1   
    64    31    66 1   
    65    32    33 ar  
    66    32    37 ar  
    67    32    67 1   
    68    33    34 ar  
    69    33    68 1   
    70    34    35 ar  
    71    34    69 1   
    72    35    36 ar  
    73    35    70 1   
    74    36    37 ar  
    75    36    71 1   
    76    37    75 1   
    77    72    77 1   
    78    73    77 1   
    79    74    77 1   
    80    75    78 1   
    81    75    79 1   
    82    76    77 1   
    83    76    80 1   
@<TRIPOS>SUBSTRUCTURE
     1 4UX         1 TEMP              0 ****  ****    0 ROOT
