@<TRIPOS>MOLECULE
4UY
   82    85     1     0     0
SMALL
abcg2


@<TRIPOS>ATOM
      1 C2          -1.4890    -3.0230     1.1020 ca         1 4UY       0.199100
      2 C3          -1.6780    -2.0090     2.0400 ca         1 4UY      -0.194500
      3 C4          -2.7260    -1.1150     1.8850 ca         1 4UY       0.020500
      4 C5          -3.5780    -1.2240     0.7980 ca         1 4UY      -0.342500
      5 C6          -3.4040    -2.2440    -0.1350 ca         1 4UY       0.020500
      6 C7          -2.3710    -3.1410     0.0200 ca         1 4UY      -0.194500
      7 S8          -4.7980     0.0120     0.4970 sy         1 4UY       1.200600
      8 O9          -5.9570    -0.6030    -0.1340 o          1 4UY      -0.546000
      9 O10         -4.9880     0.7400     1.7450 o          1 4UY      -0.546000
     10 N11         -4.0880     0.9810    -0.6210 n3         1 4UY      -0.793500
     11 C12         -4.6960     1.2590    -1.9190 c3         1 4UY       0.233800
     12 C13         -5.3960     2.6150    -2.0030 c3         1 4UY      -0.079700
     13 C14         -5.8980     2.8210    -3.4280 c3         1 4UY      -0.093100
     14 C15         -6.5290     2.7430    -0.9940 c3         1 4UY      -0.093100
     15 C16         -2.8450     1.6400    -0.2490 c3         1 4UY       0.192800
     16 C17         -1.5920     0.9480    -0.7980 c3         1 4UY       0.135300
     17 O18         -1.3890     1.1980    -2.1720 oh         1 4UY      -0.650000
     18 C19         -0.3510     1.2820     0.0390 c3         1 4UY       0.092700
     19 N20          0.7750     0.5300    -0.4630 ns         1 4UY      -0.480900
     20 C21          1.6910    -0.0380     0.3460 c          1 4UY       0.644100
     21 O22          1.5850    -0.2000     1.5420 o          1 4UY      -0.545000
     22 O23          2.7520    -0.4370    -0.3720 os         1 4UY      -0.437100
     23 C24          3.8820    -0.9090     0.3320 c5         1 4UY       0.169300
     24 C25          3.7490    -2.3260     0.8870 c5         1 4UY       0.122600
     25 O26          5.0930    -2.7420     1.0450 os         1 4UY      -0.437000
     26 C27          5.8680    -2.2040     0.0150 c5         1 4UY       0.371300
     27 O28          6.0790    -3.1650    -0.9890 os         1 4UY      -0.457000
     28 C29          5.8560    -2.5770    -2.2550 c5         1 4UY       0.117600
     29 C30          4.7390    -1.5480    -2.0300 c5         1 4UY       0.148500
     30 C31          5.0700    -1.0520    -0.6170 c5         1 4UY      -0.129700
     31 N41          4.6450    -0.4760    -2.9860 n7         1 4UY      -0.848400
     32 C42          4.2390    -0.9040    -4.3100 c3         1 4UY       0.146100
     33 C32         -0.0300     2.7880     0.0790 c3         1 4UY      -0.058100
     34 C33          2.4540     3.1110     0.3210 ca         1 4UY      -0.099500
     35 C34          3.5920     3.2870     1.0960 ca         1 4UY      -0.107000
     36 C35          3.4810     3.4350     2.4720 ca         1 4UY      -0.105000
     37 C36          2.2240     3.4100     3.0650 ca         1 4UY      -0.107000
     38 C37          1.0910     3.2260     2.2860 ca         1 4UY      -0.099500
     39 C38          1.1910     3.0700     0.9060 ca         1 4UY      -0.089300
     40 O39         -0.5010    -3.9220     1.1560 os         1 4UY      -0.334100
     41 C40          0.4450    -3.8280     2.2060 c3         1 4UY       0.137900
     42 H1          -1.0210    -1.8950     2.8900 ha         1 4UY       0.132500
     43 H2          -2.8580    -0.3300     2.6170 ha         1 4UY       0.134000
     44 H3          -4.0650    -2.3360    -0.9870 ha         1 4UY       0.134000
     45 H4          -2.2290    -3.9370    -0.6990 ha         1 4UY       0.132500
     46 H5          -3.9070     1.2000    -2.6710 h1         1 4UY       0.066700
     47 H6          -5.4060     0.4660    -2.1520 h1         1 4UY       0.066700
     48 H7          -4.6570     3.3990    -1.7960 hc         1 4UY       0.040700
     49 H8          -6.6610     2.0830    -3.6880 hc         1 4UY       0.039200
     50 H9          -6.3430     3.8100    -3.5450 hc         1 4UY       0.039200
     51 H10         -5.0900     2.7330    -4.1560 hc         1 4UY       0.039200
     52 H11         -7.2820     1.9680    -1.1500 hc         1 4UY       0.039200
     53 H12         -6.1730     2.6630     0.0340 hc         1 4UY       0.039200
     54 H13         -7.0240     3.7110    -1.0900 hc         1 4UY       0.039200
     55 H14         -2.8930     2.6800    -0.5870 h1         1 4UY       0.060700
     56 H15         -2.7790     1.7070     0.8390 h1         1 4UY       0.060700
     57 H16         -1.7330    -0.1320    -0.7210 h1         1 4UY       0.099700
     58 H17         -1.3700     2.1480    -2.3270 ho         1 4UY       0.438000
     59 H18         -0.5430     0.9360     1.0560 h1         1 4UY       0.089700
     60 H19          1.0320     0.6790    -1.4270 hn         1 4UY       0.334500
     61 H20          4.1320    -0.2180     1.1430 h1         1 4UY       0.076700
     62 H21          3.2620    -2.3700     1.8590 h1         1 4UY       0.067200
     63 H22          3.1940    -2.9660     0.1880 h1         1 4UY       0.067200
     64 H23          6.8270    -1.9030     0.4480 h2         1 4UY       0.087700
     65 H24          6.7600    -2.0720    -2.6250 h1         1 4UY       0.049700
     66 H25          5.5950    -3.3660    -2.9610 h1         1 4UY       0.049700
     67 H26          3.7810    -2.0800    -2.0300 h1         1 4UY       0.086700
     68 H27          5.6610    -0.1350    -0.6710 hc         1 4UY       0.081700
     69 H28          5.5360     0.0040    -3.0420 hn         1 4UY       0.407000
     70 H30          3.2380    -1.3380    -4.2630 h1         1 4UY       0.033033
     71 H31          4.1900    -0.0410    -4.9730 h1         1 4UY       0.033033
     72 H32          4.8960    -1.6460    -4.7830 h1         1 4UY       0.033033
     73 H33          0.1240     3.1580    -0.9390 hc         1 4UY       0.051200
     74 H34         -0.8890     3.3290     0.4840 hc         1 4UY       0.051200
     75 H36          4.5660     3.3140     0.6250 ha         1 4UY       0.113000
     76 H37          4.3660     3.5760     3.0790 ha         1 4UY       0.113000
     77 H38          2.1270     3.5310     4.1360 ha         1 4UY       0.113000
     78 H39          0.1150     3.2020     2.7580 ha         1 4UY       0.111000
     79 H40          0.9540    -2.8610     2.1990 h1         1 4UY       0.051033
     80 H41         -0.0180    -3.9790     3.1840 h1         1 4UY       0.051033
     81 H42          1.1740    -4.6160     2.0360 h1         1 4UY       0.051033
     82 H35          2.5500     3.0030    -0.7530 ha         1 4UY       0.111000
@<TRIPOS>BOND
     1     1     2 ar  
     2     1     6 ar  
     3     1    40 1   
     4     2     3 ar  
     5     2    42 1   
     6     3     4 ar  
     7     3    43 1   
     8     4     5 ar  
     9     4     7 1   
    10     5     6 ar  
    11     5    44 1   
    12     6    45 1   
    13     7     8 2   
    14     7     9 2   
    15     7    10 1   
    16    10    11 1   
    17    10    15 1   
    18    11    12 1   
    19    11    46 1   
    20    11    47 1   
    21    12    13 1   
    22    12    14 1   
    23    12    48 1   
    24    13    49 1   
    25    13    50 1   
    26    13    51 1   
    27    14    52 1   
    28    14    53 1   
    29    14    54 1   
    30    15    16 1   
    31    15    55 1   
    32    15    56 1   
    33    16    17 1   
    34    16    18 1   
    35    16    57 1   
    36    17    58 1   
    37    18    19 1   
    38    18    33 1   
    39    18    59 1   
    40    19    20 1   
    41    19    60 1   
    42    20    21 2   
    43    20    22 1   
    44    22    23 1   
    45    23    24 1   
    46    23    30 1   
    47    23    61 1   
    48    24    25 1   
    49    24    62 1   
    50    24    63 1   
    51    25    26 1   
    52    26    27 1   
    53    26    30 1   
    54    26    64 1   
    55    27    28 1   
    56    28    29 1   
    57    28    65 1   
    58    28    66 1   
    59    29    30 1   
    60    29    31 1   
    61    29    67 1   
    62    30    68 1   
    63    31    32 1   
    64    31    69 1   
    65    32    70 1   
    66    32    71 1   
    67    32    72 1   
    68    33    39 1   
    69    33    73 1   
    70    33    74 1   
    71    34    35 ar  
    72    34    39 ar  
    73    34    82 1   
    74    35    36 ar  
    75    35    75 1   
    76    36    37 ar  
    77    36    76 1   
    78    37    38 ar  
    79    37    77 1   
    80    38    39 ar  
    81    38    78 1   
    82    40    41 1   
    83    41    79 1   
    84    41    80 1   
    85    41    81 1   
@<TRIPOS>SUBSTRUCTURE
     1 4UY         1 TEMP              0 ****  ****    0 ROOT
