@<TRIPOS>MOLECULE
4UY
   82    85     1     0     0
SMALL
No Charge or Current Charge


@<TRIPOS>ATOM
      1 C2          -1.4710    -1.2210     3.6790 ca         1 4UY       0.199100
      2 C3          -2.7430    -0.6130     3.7130 ca         1 4UY      -0.194500
      3 C4          -3.5590    -0.6210     2.5690 ca         1 4UY       0.020500
      4 C5          -3.1020    -1.2270     1.3820 ca         1 4UY      -0.342500
      5 C6          -1.8400    -1.8540     1.3540 ca         1 4UY       0.020500
      6 C7          -1.0330    -1.8450     2.5020 ca         1 4UY      -0.194500
      7 S8          -4.1250    -1.1660    -0.1000 sy         1 4UY       1.200600
      8 O9          -3.4940    -1.9740    -1.1480 o          1 4UY      -0.546000
      9 O10         -5.5180    -1.3620     0.3150 o          1 4UY      -0.546000
     10 N11         -4.0160     0.4680    -0.5910 n3         1 4UY      -0.793500
     11 C12         -4.5170     0.6910    -1.9700 c3         1 4UY       0.233800
     12 C13         -4.9000     2.1590    -2.3140 c3         1 4UY      -0.079700
     13 C14         -5.3880     2.2730    -3.7760 c3         1 4UY      -0.093100
     14 C15         -5.9460     2.7410    -1.3340 c3         1 4UY      -0.093100
     15 C16         -2.7690     1.2060    -0.2280 c3         1 4UY       0.192800
     16 C17         -1.4600     0.7970    -0.9850 c3         1 4UY       0.135300
     17 O18         -1.3240     1.5200    -2.2300 oh         1 4UY      -0.650000
     18 C19         -0.1780     0.9660    -0.1130 c3         1 4UY       0.092700
     19 N20          1.0000     0.4600    -0.8290 ns         1 4UY      -0.480900
     20 C21          1.9200    -0.4110    -0.3210 c          1 4UY       0.644100
     21 O22          1.8690    -0.9220     0.7870 o          1 4UY      -0.545000
     22 O23          2.8760    -0.6280    -1.2720 os         1 4UY      -0.437100
     23 C24          3.9150    -1.5710    -0.8910 c5         1 4UY       0.169300
     24 C25          3.3650    -3.0250    -0.9210 c5         1 4UY       0.122600
     25 O26          4.5680    -3.8070    -1.0590 os         1 4UY      -0.437000
     26 C27          5.4050    -3.1540    -2.0320 c5         1 4UY       0.371300
     27 O28          5.0330    -3.6470    -3.3330 os         1 4UY      -0.457000
     28 C29          5.1210    -2.5350    -4.2360 c5         1 4UY       0.117600
     29 C30          4.3990    -1.4170    -3.4380 c5         1 4UY       0.148500
     30 C31          5.0160    -1.6360    -2.0100 c5         1 4UY      -0.129700
     31 N41          4.8200    -0.0750    -3.9400 n7         1 4UY      -0.848400
     32 C42          4.2770     0.3300    -5.2530 c3         1 4UY       0.146100
     33 C32          0.0800     2.4050     0.4090 c3         1 4UY      -0.058100
     34 C33          2.4710     2.9680     1.0890 ca         1 4UY      -0.099500
     35 C34          3.5100     2.9900     2.0360 ca         1 4UY      -0.107000
     36 C35          3.2910     2.4930     3.3330 ca         1 4UY      -0.105000
     37 C36          2.0330     1.9730     3.6820 ca         1 4UY      -0.107000
     38 C37          0.9940     1.9520     2.7350 ca         1 4UY      -0.099500
     39 C38          1.2070     2.4500     1.4340 ca         1 4UY      -0.089300
     40 O39         -0.6200    -1.2290     4.7660 os         1 4UY      -0.334100
     41 C40         -0.9480    -0.5700     6.0010 c3         1 4UY       0.137900
     42 H1          -3.1130    -0.1260     4.6100 ha         1 4UY       0.132500
     43 H2          -4.5340    -0.1360     2.5990 ha         1 4UY       0.134000
     44 H3          -1.4720    -2.3330     0.4470 ha         1 4UY       0.134000
     45 H4          -0.0530    -2.3130     2.4760 ha         1 4UY       0.132500
     46 H5          -3.7750     0.3390    -2.7000 h1         1 4UY       0.066700
     47 H6          -5.4200     0.0850    -2.1330 h1         1 4UY       0.066700
     48 H7          -3.9980     2.7770    -2.2410 hc         1 4UY       0.040700
     49 H8          -6.3020     1.6860    -3.9310 hc         1 4UY       0.039200
     50 H9          -5.6040     3.3170    -4.0330 hc         1 4UY       0.039200
     51 H10         -4.6220     1.9070    -4.4700 hc         1 4UY       0.039200
     52 H11         -6.8710     2.1520    -1.3550 hc         1 4UY       0.039200
     53 H12         -5.5650     2.7410    -0.3060 hc         1 4UY       0.039200
     54 H13         -6.1920     3.7770    -1.5990 hc         1 4UY       0.039200
     55 H14         -2.9210     2.2820    -0.3790 h1         1 4UY       0.060700
     56 H15         -2.5850     1.1220     0.8490 h1         1 4UY       0.060700
     57 H16         -1.5290    -0.2770    -1.2030 h1         1 4UY       0.099700
     58 H17         -1.2730     2.4760    -2.0170 ho         1 4UY       0.438000
     59 H18         -0.3250     0.3340     0.7720 h1         1 4UY       0.089700
     60 H19          1.1660     0.7750    -1.7750 hn         1 4UY       0.334500
     61 H20          4.3450    -1.3100     0.0870 h1         1 4UY       0.076700
     62 H21          2.8400    -3.3070     0.0000 h1         1 4UY       0.067200
     63 H22          2.7080    -3.2050    -1.7830 h1         1 4UY       0.067200
     64 H23          6.4720    -3.3250    -1.8320 h2         1 4UY       0.087700
     65 H24          6.1790    -2.3060    -4.4260 h1         1 4UY       0.049700
     66 H25          4.6240    -2.7760    -5.1850 h1         1 4UY       0.049700
     67 H26          3.3090    -1.5630    -3.4740 h1         1 4UY       0.086700
     68 H27          5.8800    -0.9970    -1.7970 hc         1 4UY       0.081700
     69 H28          5.8450    -0.0220    -3.9780 hn         1 4UY       0.407000
     70 H30          3.1790     0.3090    -5.2440 h1         1 4UY       0.033033
     71 H31          4.5950     1.3500    -5.5030 h1         1 4UY       0.033033
     72 H32          4.6270    -0.3400    -6.0500 h1         1 4UY       0.033033
     73 H33          0.3030     3.0670    -0.4370 hc         1 4UY       0.051200
     74 H34         -0.8300     2.8020     0.8730 hc         1 4UY       0.051200
     75 H36          4.4840     3.3900     1.7650 ha         1 4UY       0.113000
     76 H37          4.0960     2.5080     4.0650 ha         1 4UY       0.113000
     77 H38          1.8630     1.5850     4.6830 ha         1 4UY       0.113000
     78 H39          0.0250     1.5440     3.0130 ha         1 4UY       0.111000
     79 H40         -1.1050     0.5050     5.8400 h1         1 4UY       0.051033
     80 H41         -1.8570    -0.9970     6.4440 h1         1 4UY       0.051033
     81 H42         -0.1310    -0.6890     6.7240 h1         1 4UY       0.051033
     82 H35          2.6510     3.3490     0.0870 ha         1 4UY       0.111000
@<TRIPOS>BOND
     1     1     2 ar  
     2     1     6 ar  
     3     1    40 1   
     4     2     3 ar  
     5     2    42 1   
     6     3     4 ar  
     7     3    43 1   
     8     4     5 ar  
     9     4     7 1   
    10     5     6 ar  
    11     5    44 1   
    12     6    45 1   
    13     7     8 2   
    14     7     9 2   
    15     7    10 1   
    16    10    11 1   
    17    10    15 1   
    18    11    12 1   
    19    11    46 1   
    20    11    47 1   
    21    12    13 1   
    22    12    14 1   
    23    12    48 1   
    24    13    49 1   
    25    13    50 1   
    26    13    51 1   
    27    14    52 1   
    28    14    53 1   
    29    14    54 1   
    30    15    16 1   
    31    15    55 1   
    32    15    56 1   
    33    16    17 1   
    34    16    18 1   
    35    16    57 1   
    36    17    58 1   
    37    18    19 1   
    38    18    33 1   
    39    18    59 1   
    40    19    20 1   
    41    19    60 1   
    42    20    21 2   
    43    20    22 1   
    44    22    23 1   
    45    23    24 1   
    46    23    30 1   
    47    23    61 1   
    48    24    25 1   
    49    24    62 1   
    50    24    63 1   
    51    25    26 1   
    52    26    27 1   
    53    26    30 1   
    54    26    64 1   
    55    27    28 1   
    56    28    29 1   
    57    28    65 1   
    58    28    66 1   
    59    29    30 1   
    60    29    31 1   
    61    29    67 1   
    62    30    68 1   
    63    31    32 1   
    64    31    69 1   
    65    32    70 1   
    66    32    71 1   
    67    32    72 1   
    68    33    39 1   
    69    33    73 1   
    70    33    74 1   
    71    34    35 ar  
    72    34    39 ar  
    73    34    82 1   
    74    35    36 ar  
    75    35    75 1   
    76    36    37 ar  
    77    36    76 1   
    78    37    38 ar  
    79    37    77 1   
    80    38    39 ar  
    81    38    78 1   
    82    40    41 1   
    83    41    79 1   
    84    41    80 1   
    85    41    81 1   
@<TRIPOS>SUBSTRUCTURE
     1 4UY         1 TEMP              0 ****  ****    0 ROOT
