@<TRIPOS>MOLECULE
4UZ
   41    42     1     0     0
SMALL
No Charge or Current Charge


@<TRIPOS>ATOM
      1 C01         -2.1680    -1.3060    -0.2110 c6         1 4UZ       0.160300
      2 C02         -1.4260    -0.0760     0.3930 c6         1 4UZ       0.100700
      3 C03         -2.0580     1.2120    -0.2320 c6         1 4UZ       0.382300
      4 O04         -3.4650     1.2510     0.0190 os         1 4UZ      -0.469000
      5 C05         -4.2070     0.1610    -0.5860 c6         1 4UZ       0.155300
      6 C06         -3.7080    -1.1960     0.0050 c6         1 4UZ       0.097300
      7 N07          0.0360    -0.1670     0.1570 ns         1 4UZ      -0.485900
      8 O08         -4.3650    -2.3350    -0.6000 oh         1 4UZ      -0.724000
      9 O09         -1.6950    -2.5390     0.3540 oh         1 4UZ      -0.641000
     10 C10         -5.7330     0.4130    -0.3400 c3         1 4UZ       0.170600
     11 O11         -1.5620     2.3940     0.3610 oh         1 4UZ      -0.619000
     12 O12         -6.1850     1.6940    -0.8240 oh         1 4UZ      -0.706000
     13 C13          1.0070     0.3360     0.9730 c          1 4UZ       0.652100
     14 O14          2.2200     0.0960     0.4060 os         1 4UZ      -0.464100
     15 O15          0.8130     0.8970     2.0390 o          1 4UZ      -0.533000
     16 C16          3.3840     0.5490     1.1170 c3         1 4UZ       0.232900
     17 C17          4.6170     0.1790     0.3040 ca         1 4UZ      -0.100300
     18 C18          5.2550    -1.0620     0.5050 ca         1 4UZ      -0.084500
     19 C19          6.3950    -1.4020    -0.2450 ca         1 4UZ      -0.116500
     20 C20          6.9030    -0.5050    -1.2000 ca         1 4UZ      -0.099000
     21 C21          6.2700     0.7320    -1.4060 ca         1 4UZ      -0.116500
     22 C22          5.1300     1.0730    -0.6570 ca         1 4UZ      -0.084500
     23 H1          -1.9810    -1.3130    -1.2960 h1         1 4UZ       0.038700
     24 H2          -1.6090    -0.0540     1.4770 h1         1 4UZ       0.119700
     25 H3          -1.8770     1.2370    -1.3170 h2         1 4UZ       0.015700
     26 H4          -4.0310     0.1740    -1.6720 h1         1 4UZ       0.058700
     27 H5          -3.8990    -1.1850     1.0900 h1         1 4UZ       0.062700
     28 H6           0.3680    -0.6350    -0.6750 hn         1 4UZ       0.324500
     29 H7          -5.2330    -2.4600    -0.1470 ho         1 4UZ       0.513000
     30 H8          -2.3800    -3.2020     0.1090 ho         1 4UZ       0.457000
     31 H9          -6.3000    -0.3880    -0.8330 h1         1 4UZ       0.026700
     32 H10         -5.9230     0.3320     0.7390 h1         1 4UZ       0.026700
     33 H11         -2.3650     2.9430     0.4700 ho         1 4UZ       0.460000
     34 H12         -7.1290     1.7850    -0.5560 ho         1 4UZ       0.506000
     35 H13          3.3530     1.6370     1.2630 h1         1 4UZ       0.056700
     36 H14          3.4420     0.0780     2.1080 h1         1 4UZ       0.056700
     37 H15          4.8670    -1.7630     1.2400 ha         1 4UZ       0.115500
     38 H16          6.8840    -2.3610    -0.0860 ha         1 4UZ       0.113500
     39 H17          7.7850    -0.7690    -1.7800 ha         1 4UZ       0.112000
     40 H18          6.6610     1.4270    -2.1460 ha         1 4UZ       0.113500
     41 H19          4.6440     2.0320    -0.8240 ha         1 4UZ       0.115500
@<TRIPOS>BOND
     1     1     2 1   
     2     1     6 1   
     3     1     9 1   
     4     1    23 1   
     5     2     3 1   
     6     2     7 1   
     7     2    24 1   
     8     3     4 1   
     9     3    11 1   
    10     3    25 1   
    11     4     5 1   
    12     5     6 1   
    13     5    10 1   
    14     5    26 1   
    15     6     8 1   
    16     6    27 1   
    17     7    13 1   
    18     7    28 1   
    19     8    29 1   
    20     9    30 1   
    21    10    12 1   
    22    10    31 1   
    23    10    32 1   
    24    11    33 1   
    25    12    34 1   
    26    13    14 1   
    27    13    15 2   
    28    14    16 1   
    29    16    17 1   
    30    16    35 1   
    31    16    36 1   
    32    17    18 ar  
    33    17    22 ar  
    34    18    19 ar  
    35    18    37 1   
    36    19    20 ar  
    37    19    38 1   
    38    20    21 ar  
    39    20    39 1   
    40    21    22 ar  
    41    21    40 1   
    42    22    41 1   
@<TRIPOS>SUBSTRUCTURE
     1 4UZ         1 TEMP              0 ****  ****    0 ROOT
