@<TRIPOS>MOLECULE
4UZ
   41    42     1     0     0
SMALL
abcg2


@<TRIPOS>ATOM
      1 C01         -2.1310    -1.2380    -0.1450 c6         1 4UZ       0.160300
      2 C02         -1.4280     0.0310     0.3230 c6         1 4UZ       0.100700
      3 C03         -2.0970     1.2500    -0.3170 c6         1 4UZ       0.382300
      4 O04         -3.4670     1.2580     0.0050 os         1 4UZ      -0.469000
      5 C05         -4.1770     0.1570    -0.5220 c6         1 4UZ       0.155300
      6 C06         -3.6340    -1.1370     0.0960 c6         1 4UZ       0.097300
      7 N07         -0.0260    -0.0210     0.0110 ns         1 4UZ      -0.485900
      8 O08         -4.2220    -2.2810    -0.4820 oh         1 4UZ      -0.724000
      9 O09         -1.5640    -2.3270     0.5330 oh         1 4UZ      -0.641000
     10 C10         -5.6450     0.3570    -0.2170 c3         1 4UZ       0.170600
     11 O11         -1.5200     2.3890     0.1940 oh         1 4UZ      -0.619000
     12 O12         -6.1040     1.4980    -0.9010 oh         1 4UZ      -0.706000
     13 C13          0.9390     0.2640     0.9040 c          1 4UZ       0.652100
     14 O14          2.1480     0.1470     0.3410 os         1 4UZ      -0.464100
     15 O15          0.7630     0.5740     2.0640 o          1 4UZ      -0.533000
     16 C16          3.2810     0.3880     1.1830 c3         1 4UZ       0.232900
     17 C17          4.5030     0.1120     0.3610 ca         1 4UZ      -0.100300
     18 C18          5.0810    -1.1540     0.3670 ca         1 4UZ      -0.084500
     19 C19          6.1980    -1.4240    -0.4120 ca         1 4UZ      -0.116500
     20 C20          6.7460    -0.4270    -1.2080 ca         1 4UZ      -0.099000
     21 C21          6.1750     0.8390    -1.2200 ca         1 4UZ      -0.116500
     22 C22          5.0590     1.1060    -0.4400 ca         1 4UZ      -0.084500
     23 H1          -1.9790    -1.3370    -1.2350 h1         1 4UZ       0.038700
     24 H2          -1.5360     0.1170     1.4080 h1         1 4UZ       0.119700
     25 H3          -1.9830     1.1930    -1.4140 h2         1 4UZ       0.015700
     26 H4          -4.0440     0.1030    -1.6160 h1         1 4UZ       0.058700
     27 H5          -3.8080    -1.1080     1.1810 h1         1 4UZ       0.062700
     28 H6           0.2460    -0.2690    -0.9280 hn         1 4UZ       0.324500
     29 H7          -4.9870    -2.5420     0.0370 ho         1 4UZ       0.513000
     30 H8          -2.0150    -3.1250     0.2370 ho         1 4UZ       0.457000
     31 H9          -6.1880    -0.5430    -0.5280 h1         1 4UZ       0.026700
     32 H10         -5.7730     0.4530     0.8700 h1         1 4UZ       0.026700
     33 H11         -1.6930     3.1280    -0.3990 ho         1 4UZ       0.460000
     34 H12         -7.0440     1.5940    -0.7210 ho         1 4UZ       0.506000
     35 H13          3.2730     1.4210     1.5360 h1         1 4UZ       0.056700
     36 H14          3.2500    -0.2710     2.0540 h1         1 4UZ       0.056700
     37 H15          4.6570    -1.9330     0.9900 ha         1 4UZ       0.115500
     38 H16          6.6400    -2.4120    -0.3960 ha         1 4UZ       0.113500
     39 H17          7.6200    -0.6330    -1.8120 ha         1 4UZ       0.112000
     40 H18          6.6000     1.6200    -1.8380 ha         1 4UZ       0.113500
     41 H19          4.6210     2.0970    -0.4470 ha         1 4UZ       0.115500
@<TRIPOS>BOND
     1     1     2 1   
     2     1     6 1   
     3     1     9 1   
     4     1    23 1   
     5     2     3 1   
     6     2     7 1   
     7     2    24 1   
     8     3     4 1   
     9     3    11 1   
    10     3    25 1   
    11     4     5 1   
    12     5     6 1   
    13     5    10 1   
    14     5    26 1   
    15     6     8 1   
    16     6    27 1   
    17     7    13 1   
    18     7    28 1   
    19     8    29 1   
    20     9    30 1   
    21    10    12 1   
    22    10    31 1   
    23    10    32 1   
    24    11    33 1   
    25    12    34 1   
    26    13    14 1   
    27    13    15 2   
    28    14    16 1   
    29    16    17 1   
    30    16    35 1   
    31    16    36 1   
    32    17    18 ar  
    33    17    22 ar  
    34    18    19 ar  
    35    18    37 1   
    36    19    20 ar  
    37    19    38 1   
    38    20    21 ar  
    39    20    39 1   
    40    21    22 ar  
    41    21    40 1   
    42    22    41 1   
@<TRIPOS>SUBSTRUCTURE
     1 4UZ         1 TEMP              0 ****  ****    0 ROOT
