@<TRIPOS>MOLECULE
4V0
   24    24     1     0     0
SMALL
No Charge or Current Charge


@<TRIPOS>ATOM
      1 N           -1.7160     1.5720    -0.9800 n8         1 4V0      -0.997200
      2 CA          -1.7380     0.1530    -0.4580 c3         1 4V0       0.016500
      3 CB          -0.6690    -0.0590     0.6510 c3         1 4V0      -0.022200
      4 CG           0.7750     0.0640     0.1760 ce         1 4V0      -0.043200
      5 CD1          1.3590    -1.1270    -0.4630 ce         1 4V0      -0.178000
      6 CE1          2.6680    -1.5190    -0.4790 cf         1 4V0      -0.044400
      7 NZ1          3.7630    -0.9110     0.1800 nf         1 4V0      -0.595300
      8 CZ2          3.8650     0.3880     0.3790 c2         1 4V0       0.426200
      9 CE2          2.8940     1.4120    -0.1750 c3         1 4V0      -0.131500
     10 CD2          1.4810     1.2020     0.3250 c2         1 4V0      -0.229200
     11 C           -3.1450    -0.3740     0.0440 c          1 4V0       0.690000
     12 O           -3.7740     0.3100     0.8410 o          1 4V0      -0.732000
     13 H1          -2.3980     1.6570    -1.7440 hn         1 4V0       0.382000
     14 H2          -2.1030     2.1870    -0.2540 hn         1 4V0       0.382000
     15 H4          -1.4580    -0.4930    -1.3010 h1         1 4V0       0.040700
     16 H5          -0.8640     0.6390     1.4740 hc         1 4V0       0.051200
     17 H6          -0.8170    -1.0580     1.0800 hc         1 4V0       0.051200
     18 H7           0.6460    -1.7850    -0.9630 ha         1 4V0       0.190000
     19 H8           2.9200    -2.4600    -0.9930 h4         1 4V0       0.184000
     20 H9           4.7260     0.7790     0.9160 h4         1 4V0       0.003800
     21 H10          3.2380     2.4160     0.0990 hc         1 4V0       0.053200
     22 H11          2.9110     1.3770    -1.2710 hc         1 4V0       0.053200
     23 H12          1.0270     2.0750     0.7960 ha         1 4V0       0.178000
     24 OXT         -3.6000    -1.3880    -0.4670 o          1 4V0      -0.732000
@<TRIPOS>BOND
     1     1     2 1   
     2     1    13 1   
     3     1    14 1   
     4     2     3 1   
     5     2    11 1   
     6     2    15 1   
     7     3     4 1   
     8     3    16 1   
     9     3    17 1   
    10     4     5 1   
    11     4    10 2   
    12     5     6 2   
    13     5    18 1   
    14     6     7 1   
    15     6    19 1   
    16     7     8 2   
    17     8     9 1   
    18     8    20 1   
    19     9    10 1   
    20     9    21 1   
    21     9    22 1   
    22    10    23 1   
    23    11    12 1   
    24    11    24 1   
@<TRIPOS>SUBSTRUCTURE
     1 4V0         1 TEMP              0 ****  ****    0 ROOT
