@<TRIPOS>MOLECULE
4V0
   24    24     1     0     0
SMALL
bcc


@<TRIPOS>ATOM
      1 N           -1.5990     1.5130    -0.9400 n8         1 4V0      -0.886800
      2 CA          -1.6870     0.1430    -0.4700 c3         1 4V0       0.016500
      3 CB          -0.6450    -0.0940     0.6370 c3         1 4V0      -0.022200
      4 CG           0.7720     0.0530     0.1530 ce         1 4V0      -0.043200
      5 CD1          1.3360    -1.0420    -0.5950 ce         1 4V0      -0.128000
      6 CE1          2.6470    -1.4020    -0.6130 cf         1 4V0       0.005600
      7 NZ1          3.6420    -0.8670     0.1590 nf         1 4V0      -0.595300
      8 CZ2          3.6920     0.3800     0.4240 c2         1 4V0       0.426200
      9 CE2          2.8190     1.4020    -0.2350 c3         1 4V0      -0.131500
     10 CD2          1.4800     1.1790     0.3870 c2         1 4V0      -0.179200
     11 C           -3.0740    -0.2960     0.0660 c          1 4V0       0.900600
     12 O           -3.8890     0.6000     0.3580 o          1 4V0      -0.837300
     13 H1          -2.2450     1.6330    -1.7110 hn         1 4V0       0.326800
     14 H2          -1.9620     2.1170    -0.2110 hn         1 4V0       0.326800
     15 H4          -1.4400    -0.5150    -1.3110 h1         1 4V0       0.040700
     16 H5          -0.8290     0.6190     1.4470 hc         1 4V0       0.051200
     17 H6          -0.7970    -1.0920     1.0500 hc         1 4V0       0.051200
     18 H7           0.6470    -1.7280    -1.0780 ha         1 4V0       0.140000
     19 H8           2.9240    -2.3080    -1.1410 h4         1 4V0       0.134000
     20 H9           4.3940     0.7080     1.1880 h4         1 4V0       0.003800
     21 H10          3.1880     2.4090    -0.0520 hc         1 4V0       0.053200
     22 H11          2.7900     1.2240    -1.3160 hc         1 4V0       0.053200
     23 H12          1.0730     1.9480     1.0340 ha         1 4V0       0.128000
     24 OXT         -3.2460    -1.5280     0.1840 o          1 4V0      -0.837300
@<TRIPOS>BOND
     1     1     2 1   
     2     1    13 1   
     3     1    14 1   
     4     2     3 1   
     5     2    11 1   
     6     2    15 1   
     7     3     4 1   
     8     3    16 1   
     9     3    17 1   
    10     4     5 1   
    11     4    10 2   
    12     5     6 2   
    13     5    18 1   
    14     6     7 1   
    15     6    19 1   
    16     7     8 2   
    17     8     9 1   
    18     8    20 1   
    19     9    10 1   
    20     9    21 1   
    21     9    22 1   
    22    10    23 1   
    23    11    12 1   
    24    11    24 1   
@<TRIPOS>SUBSTRUCTURE
     1 4V0         1 TEMP              0 ****  ****    0 ROOT
