@<TRIPOS>MOLECULE
4V1
   43    46     1     0     0
SMALL
No Charge or Current Charge


@<TRIPOS>ATOM
      1 N1           0.3730    -0.9110     0.1770 nc         1 4V1      -0.613100
      2 N3           0.5740     1.3780    -0.4140 ns         1 4V1      -0.417400
      3 C4          -0.7530     1.6480    -0.4690 c          1 4V1       0.599600
      4 C5          -1.5860     0.4710    -0.1590 cd         1 4V1      -0.240600
      5 C6          -0.9960    -0.7330     0.1470 cc         1 4V1       0.086400
      6 CAB          4.5990    -1.3640    -0.2680 ca         1 4V1      -0.145800
      7 CAC          3.1990    -1.2210    -0.3080 ca         1 4V1      -0.035000
      8 CAW          5.4050    -0.2410     0.0110 ca         1 4V1       0.167100
      9 OAX          6.7650    -0.3800     0.0510 oh         1 4V1      -0.529100
     10 CAU          4.8130     1.0160     0.2590 ca         1 4V1      -0.145800
     11 CAV          5.6610     2.2450     0.5830 c3         1 4V1      -0.043300
     12 CAT          3.4100     1.1420     0.2140 ca         1 4V1      -0.035000
     13 CAD          2.5870     0.0330    -0.0900 ca         1 4V1      -0.191900
     14 C2           1.1110     0.1640    -0.1000 cd         1 4V1       0.572500
     15 SAH         -2.1910    -1.9870     0.4880 ss         1 4V1       0.252000
     16 CAI         -3.4950    -0.8410     0.2200 cc         1 4V1      -0.234300
     17 CAJ         -4.9600    -1.1850     0.3210 c6         1 4V1       0.242100
     18 NAK         -5.7770     0.0490     0.4820 n3         1 4V1      -0.708600
     19 CAL         -7.2260    -0.2440     0.5210 c3         1 4V1       0.151100
     20 CAM         -5.4260     1.0700    -0.5450 c6         1 4V1       0.163800
     21 CAN         -3.9600     1.5530    -0.4010 c6         1 4V1      -0.012100
     22 CAO         -3.0180     0.3990    -0.1250 cd         1 4V1      -0.015300
     23 O4          -1.1680     2.7610    -0.7510 o          1 4V1      -0.543000
     24 H1           1.1820     2.1470    -0.6450 hn         1 4V1       0.329500
     25 H2           5.8080    -3.0680     0.3400 hc         1 4V1       0.046033
     26 H3           4.4670    -3.5000    -0.7270 hc         1 4V1       0.046033
     27 H4           5.8970    -2.7010    -1.3920 hc         1 4V1       0.046033
     28 H5           2.5860    -2.0940    -0.5250 ha         1 4V1       0.127000
     29 H6           7.1550     0.4940     0.2590 ho         1 4V1       0.471000
     30 H7           6.3490     2.4810    -0.2380 hc         1 4V1       0.046033
     31 H8           5.0430     3.1360     0.7500 hc         1 4V1       0.046033
     32 H9           6.2540     2.0900     1.4930 hc         1 4V1       0.046033
     33 H10          2.9650     2.1110     0.4310 ha         1 4V1       0.127000
     34 H11         -5.2680    -1.7290    -0.5850 h1         1 4V1       0.042200
     35 H12         -5.1280    -1.8620     1.1720 h1         1 4V1       0.042200
     36 H14         -7.4550    -0.9570     1.3250 h1         1 4V1       0.032033
     37 H15         -7.8020     0.6720     0.7080 h1         1 4V1       0.032033
     38 H16         -7.5650    -0.6760    -0.4300 h1         1 4V1       0.032033
     39 H17         -5.5650     0.6470    -1.5520 h1         1 4V1       0.034700
     40 H18         -6.0910     1.9430    -0.4690 h1         1 4V1       0.034700
     41 H19         -3.6730     2.0910    -1.3140 hc         1 4V1       0.069700
     42 H20         -3.9020     2.2780     0.4210 hc         1 4V1       0.069700
     43 CAA          5.2250    -2.7330    -0.5260 c3         1 4V1      -0.043300
@<TRIPOS>BOND
     1     1     5 1   
     2     1    14 2   
     3     2     3 1   
     4     2    14 1   
     5     2    24 1   
     6     3     4 1   
     7     3    23 2   
     8     4     5 2   
     9     4    22 1   
    10     5    15 1   
    11     6     7 ar  
    12     6     8 ar  
    13     6    43 1   
    14     7    13 ar  
    15     7    28 1   
    16     8     9 1   
    17     8    10 ar  
    18     9    29 1   
    19    10    11 1   
    20    10    12 ar  
    21    11    30 1   
    22    11    31 1   
    23    11    32 1   
    24    12    13 ar  
    25    12    33 1   
    26    13    14 1   
    27    15    16 1   
    28    16    17 1   
    29    16    22 2   
    30    17    18 1   
    31    17    34 1   
    32    17    35 1   
    33    18    19 1   
    34    18    20 1   
    35    19    36 1   
    36    19    37 1   
    37    19    38 1   
    38    20    21 1   
    39    20    39 1   
    40    20    40 1   
    41    21    22 1   
    42    21    41 1   
    43    21    42 1   
    44    25    43 1   
    45    26    43 1   
    46    27    43 1   
@<TRIPOS>SUBSTRUCTURE
     1 4V1         1 TEMP              0 ****  ****    0 ROOT
