@<TRIPOS>MOLECULE
4V1
   43    46     1     0     0
SMALL
abcg2


@<TRIPOS>ATOM
      1 N1           0.3540    -0.8150     0.1300 nc         1 4V1      -0.613100
      2 N3           0.5810     1.4560    -0.3100 ns         1 4V1      -0.417400
      3 C4          -0.7740     1.7710    -0.3450 c          1 4V1       0.599600
      4 C5          -1.6040     0.6200    -0.1210 cd         1 4V1      -0.240600
      5 C6          -0.9710    -0.5920     0.0900 cc         1 4V1       0.086400
      6 CAB          4.4970    -1.3790    -0.2050 ca         1 4V1      -0.145800
      7 CAC          3.1290    -1.1830    -0.2180 ca         1 4V1      -0.035000
      8 CAW          5.3270    -0.2680     0.0020 ca         1 4V1       0.167100
      9 OAX          6.6500    -0.5020     0.0050 oh         1 4V1      -0.529100
     10 CAU          4.7960     1.0120     0.1980 ca         1 4V1      -0.145800
     11 CAV          5.7020     2.1850     0.4340 c3         1 4V1      -0.043300
     12 CAT          3.4180     1.1650     0.1730 ca         1 4V1      -0.035000
     13 CAD          2.5670     0.0830    -0.0400 ca         1 4V1      -0.191900
     14 C2           1.1080     0.2250    -0.0690 cd         1 4V1       0.572500
     15 SAH         -2.1160    -1.8610     0.3290 ss         1 4V1       0.252000
     16 CAI         -3.4360    -0.7530     0.1410 cc         1 4V1      -0.234300
     17 CAJ         -4.8630    -1.1820     0.2370 c6         1 4V1       0.242100
     18 NAK         -5.7060    -0.0210     0.4460 n3         1 4V1      -0.708600
     19 CAL         -7.1010    -0.4010     0.4340 c3         1 4V1       0.151100
     20 CAM         -5.4150     1.0210    -0.5240 c6         1 4V1       0.163800
     21 CAN         -4.0300     1.6130    -0.2930 c6         1 4V1      -0.012100
     22 CAO         -3.0300     0.5190    -0.0970 cd         1 4V1      -0.015300
     23 O4          -1.1390     2.9150    -0.5570 o          1 4V1      -0.543000
     24 H1           1.2080     2.2240    -0.5110 hn         1 4V1       0.329500
     25 H2           5.6950    -3.0500     0.4450 hc         1 4V1       0.046033
     26 H3           4.3080    -3.4830    -0.5510 hc         1 4V1       0.046033
     27 H4           5.7400    -2.7700    -1.2870 hc         1 4V1       0.046033
     28 H5           2.4790    -2.0330    -0.3780 ha         1 4V1       0.127000
     29 H6           7.1520     0.3040     0.1690 ho         1 4V1       0.471000
     30 H7           6.3720     2.3620    -0.4110 hc         1 4V1       0.046033
     31 H8           5.1240     3.0960     0.5780 hc         1 4V1       0.046033
     32 H9           6.3220     2.0560     1.3250 hc         1 4V1       0.046033
     33 H10          3.0260     2.1590     0.3550 ha         1 4V1       0.127000
     34 H11         -5.1430    -1.7340    -0.6780 h1         1 4V1       0.042200
     35 H12         -5.0000    -1.8760     1.0710 h1         1 4V1       0.042200
     36 H14         -7.2870    -1.1610     1.1940 h1         1 4V1       0.032033
     37 H15         -7.7240     0.4640     0.6660 h1         1 4V1       0.032033
     38 H16         -7.4320    -0.8070    -0.5340 h1         1 4V1       0.032033
     39 H17         -5.4880     0.6400    -1.5580 h1         1 4V1       0.034700
     40 H18         -6.1650     1.8070    -0.4250 h1         1 4V1       0.034700
     41 H19         -3.7570     2.2400    -1.1430 hc         1 4V1       0.069700
     42 H20         -4.0410     2.2670     0.5830 hc         1 4V1       0.069700
     43 CAA          5.0910    -2.7400    -0.4100 c3         1 4V1      -0.043300
@<TRIPOS>BOND
     1     1     5 1   
     2     1    14 2   
     3     2     3 1   
     4     2    14 1   
     5     2    24 1   
     6     3     4 1   
     7     3    23 2   
     8     4     5 2   
     9     4    22 1   
    10     5    15 1   
    11     6     7 ar  
    12     6     8 ar  
    13     6    43 1   
    14     7    13 ar  
    15     7    28 1   
    16     8     9 1   
    17     8    10 ar  
    18     9    29 1   
    19    10    11 1   
    20    10    12 ar  
    21    11    30 1   
    22    11    31 1   
    23    11    32 1   
    24    12    13 ar  
    25    12    33 1   
    26    13    14 1   
    27    15    16 1   
    28    16    17 1   
    29    16    22 2   
    30    17    18 1   
    31    17    34 1   
    32    17    35 1   
    33    18    19 1   
    34    18    20 1   
    35    19    36 1   
    36    19    37 1   
    37    19    38 1   
    38    20    21 1   
    39    20    39 1   
    40    20    40 1   
    41    21    22 1   
    42    21    41 1   
    43    21    42 1   
    44    25    43 1   
    45    26    43 1   
    46    27    43 1   
@<TRIPOS>SUBSTRUCTURE
     1 4V1         1 TEMP              0 ****  ****    0 ROOT
