@<TRIPOS>MOLECULE
4V3
   46    48     1     0     0
SMALL
No Charge or Current Charge


@<TRIPOS>ATOM
      1 C10          7.3600     0.0650     0.6230 c3         1 4V3       0.170600
      2 C13          0.6500     0.7990    -0.6300 c          1 4V3       0.654100
      3 C01          3.8050    -1.2530    -0.5190 c6         1 4V3       0.162300
      4 C02          3.0720     0.1100    -0.3400 c6         1 4V3       0.099700
      5 C03          3.6860     0.8170     0.9130 c6         1 4V3       0.381300
      6 O04          5.0970     0.9790     0.7540 os         1 4V3      -0.467000
      7 C05          5.8310    -0.2690     0.6560 c6         1 4V3       0.154300
      8 C06          5.3480    -1.0550    -0.6060 c6         1 4V3       0.096300
      9 N07          1.6060    -0.0850    -0.2240 ns         1 4V3      -0.482900
     10 O08          5.9970    -2.3420    -0.7340 oh         1 4V3      -0.723000
     11 O09          3.3480    -1.9500    -1.6880 oh         1 4V3      -0.640000
     12 O12          7.7970     0.8470     1.7520 oh         1 4V3      -0.705000
     13 O14         -0.5740     0.2920    -0.3220 os         1 4V3      -0.465100
     14 O15          0.8630     1.8620    -1.1900 o          1 4V3      -0.520000
     15 C16         -1.7230     1.0800    -0.6750 c3         1 4V3       0.259800
     16 C17         -2.9880     0.3710    -0.2600 ce         1 4V3      -0.251300
     17 C18         -3.1900    -0.8280     0.3600 cf         1 4V3      -0.034200
     18 C19         -4.5910    -1.2020     0.6110 ca         1 4V3      -0.035800
     19 C20         -5.4760    -0.2250     0.1500 ca         1 4V3      -0.242500
     20 S21         -4.5700     1.1300    -0.5800 sy         1 4V3       0.993600
     21 C22         -5.0740    -2.3670     1.2250 ca         1 4V3      -0.080000
     22 C23         -6.4700    -2.5260     1.3660 ca         1 4V3      -0.067000
     23 C24         -7.3590    -1.5300     0.8950 ca         1 4V3      -0.112000
     24 C25         -6.8650    -0.3610     0.2780 ca         1 4V3       0.013000
     25 O26         -4.7240     2.3310     0.2510 o          1 4V3      -0.505000
     26 O27         -4.8200     1.1690    -2.0270 o          1 4V3      -0.505000
     27 H1           7.9190    -0.8800     0.5910 h1         1 4V3       0.027200
     28 H2           7.5730     0.6030    -0.3100 h1         1 4V3       0.027200
     29 H3           3.5960    -1.8670     0.3700 h1         1 4V3       0.037700
     30 H4           3.2770     0.7360    -1.2200 h1         1 4V3       0.121700
     31 H5           3.4830     0.2290     1.8200 h2         1 4V3       0.013700
     32 H6           5.6320    -0.8680     1.5570 h1         1 4V3       0.058700
     33 H7           5.5620    -0.4360    -1.4920 h1         1 4V3       0.063700
     34 H8           1.2580    -0.9390     0.1920 hn         1 4V3       0.322500
     35 H9           6.8750    -2.1980    -1.1620 ho         1 4V3       0.514000
     36 H10          4.0300    -2.6430    -1.8440 ho         1 4V3       0.459000
     37 H12          8.7460     1.0660     1.6010 ho         1 4V3       0.507000
     38 H13         -1.6840     2.0600    -0.1800 h1         1 4V3       0.074200
     39 H14         -1.7510     1.2540    -1.7600 h1         1 4V3       0.074200
     40 H15         -2.3780    -1.4910     0.6640 ha         1 4V3       0.211000
     41 H16         -4.3900    -3.1310     1.5860 ha         1 4V3       0.124000
     42 H17         -6.8650    -3.4210     1.8390 ha         1 4V3       0.121000
     43 H18         -8.4310    -1.6660     1.0100 ha         1 4V3       0.123000
     44 H19         -7.5440     0.4080    -0.0850 ha         1 4V3       0.133000
     45 O11          3.1960     2.1320     1.0790 oh         1 4V3      -0.620000
     46 H11          3.9980     2.6390     1.3240 ho         1 4V3       0.461000
@<TRIPOS>BOND
     1     1     7 1   
     2     1    12 1   
     3     1    27 1   
     4     1    28 1   
     5     2     9 1   
     6     2    13 1   
     7     2    14 2   
     8     3     4 1   
     9     3     8 1   
    10     3    11 1   
    11     3    29 1   
    12     4     5 1   
    13     4     9 1   
    14     4    30 1   
    15     5     6 1   
    16     5    31 1   
    17     5    45 1   
    18     6     7 1   
    19     7     8 1   
    20     7    32 1   
    21     8    10 1   
    22     8    33 1   
    23     9    34 1   
    24    10    35 1   
    25    11    36 1   
    26    12    37 1   
    27    13    15 1   
    28    15    16 1   
    29    15    38 1   
    30    15    39 1   
    31    16    17 2   
    32    16    20 1   
    33    17    18 1   
    34    17    40 1   
    35    18    19 ar  
    36    18    21 ar  
    37    19    20 1   
    38    19    24 ar  
    39    20    25 2   
    40    20    26 2   
    41    21    22 ar  
    42    21    41 1   
    43    22    23 ar  
    44    22    42 1   
    45    23    24 ar  
    46    23    43 1   
    47    24    44 1   
    48    45    46 1   
@<TRIPOS>SUBSTRUCTURE
     1 4V3         1 TEMP              0 ****  ****    0 ROOT
