@<TRIPOS>MOLECULE
4V3
   46    48     1     0     0
SMALL
abcg2


@<TRIPOS>ATOM
      1 C10          7.2040     0.1380     0.6610 c3         1 4V3       0.170600
      2 C13          0.6960     0.6030    -0.7260 c          1 4V3       0.654100
      3 C01          3.8280    -1.1300    -0.7160 c6         1 4V3       0.162300
      4 C02          3.0480     0.1090    -0.2880 c6         1 4V3       0.099700
      5 C03          3.5980     0.6230     1.0440 c6         1 4V3       0.381300
      6 O04          4.9730     0.8880     0.9160 os         1 4V3      -0.467000
      7 C05          5.7450    -0.2620     0.6420 c6         1 4V3       0.154300
      8 C06          5.3250    -0.8380    -0.7150 c6         1 4V3       0.096300
      9 N07          1.6430    -0.1810    -0.1900 ns         1 4V3      -0.482900
     10 O08          5.9810    -2.0540    -0.9990 oh         1 4V3      -0.723000
     11 O09          3.3700    -1.5210    -1.9810 oh         1 4V3      -0.640000
     12 O12          7.5480     0.5530     1.9600 oh         1 4V3      -0.705000
     13 O14         -0.5280     0.1410    -0.4110 os         1 4V3      -0.465100
     14 O15          0.8790     1.5870    -1.4090 o          1 4V3      -0.520000
     15 C16         -1.6260     0.8510    -0.9450 c3         1 4V3       0.259800
     16 C17         -2.8590     0.2310    -0.3980 ce         1 4V3      -0.251300
     17 C18         -3.0430    -0.8110     0.4100 cf         1 4V3      -0.034200
     18 C19         -4.4470    -1.1010     0.7260 ca         1 4V3      -0.035800
     19 C20         -5.3390    -0.2240     0.1190 ca         1 4V3      -0.242500
     20 S21         -4.4300     0.9480    -0.8460 sy         1 4V3       0.993600
     21 C22         -4.9450    -2.1110     1.5300 ca         1 4V3      -0.080000
     22 C23         -6.3230    -2.2130     1.7030 ca         1 4V3      -0.067000
     23 C24         -7.1940    -1.3240     1.0870 ca         1 4V3      -0.112000
     24 C25         -6.7030    -0.3030     0.2740 ca         1 4V3       0.013000
     25 O26         -4.5420     2.2920    -0.2960 o          1 4V3      -0.505000
     26 O27         -4.6780     0.7670    -2.2700 o          1 4V3      -0.505000
     27 H1           7.8030    -0.7240     0.3420 h1         1 4V3       0.027200
     28 H2           7.3660     0.9330    -0.0810 h1         1 4V3       0.027200
     29 H3           3.6470    -1.9250     0.0290 h1         1 4V3       0.037700
     30 H4           3.1860     0.8910    -1.0390 h1         1 4V3       0.121700
     31 H5           3.4490    -0.1510     1.8190 h2         1 4V3       0.013700
     32 H6           5.5740    -1.0300     1.4150 h1         1 4V3       0.058700
     33 H7           5.5290    -0.0870    -1.4920 h1         1 4V3       0.063700
     34 H8           1.3540    -0.9760     0.3600 hn         1 4V3       0.322500
     35 H9           6.7980    -1.8700    -1.4700 ho         1 4V3       0.514000
     36 H10          3.8740    -2.2970    -2.2500 ho         1 4V3       0.459000
     37 H12          8.4770     0.8020     1.9560 ho         1 4V3       0.507000
     38 H13         -1.5900     1.9100    -0.6710 h1         1 4V3       0.074200
     39 H14         -1.6370     0.8000    -2.0390 h1         1 4V3       0.074200
     40 H15         -2.2400    -1.4110     0.8170 ha         1 4V3       0.211000
     41 H16         -4.2760    -2.8090     2.0160 ha         1 4V3       0.124000
     42 H17         -6.7230    -3.0010     2.3290 ha         1 4V3       0.121000
     43 H18         -8.2600    -1.4210     1.2370 ha         1 4V3       0.123000
     44 H19         -7.3740     0.3950    -0.2100 ha         1 4V3       0.133000
     45 O11          2.9510     1.7930     1.3640 oh         1 4V3      -0.620000
     46 H11          3.0480     1.9660     2.3060 ho         1 4V3       0.461000
@<TRIPOS>BOND
     1     1     7 1   
     2     1    12 1   
     3     1    27 1   
     4     1    28 1   
     5     2     9 1   
     6     2    13 1   
     7     2    14 2   
     8     3     4 1   
     9     3     8 1   
    10     3    11 1   
    11     3    29 1   
    12     4     5 1   
    13     4     9 1   
    14     4    30 1   
    15     5     6 1   
    16     5    31 1   
    17     5    45 1   
    18     6     7 1   
    19     7     8 1   
    20     7    32 1   
    21     8    10 1   
    22     8    33 1   
    23     9    34 1   
    24    10    35 1   
    25    11    36 1   
    26    12    37 1   
    27    13    15 1   
    28    15    16 1   
    29    15    38 1   
    30    15    39 1   
    31    16    17 2   
    32    16    20 1   
    33    17    18 1   
    34    17    40 1   
    35    18    19 ar  
    36    18    21 ar  
    37    19    20 1   
    38    19    24 ar  
    39    20    25 2   
    40    20    26 2   
    41    21    22 ar  
    42    21    41 1   
    43    22    23 ar  
    44    22    42 1   
    45    23    24 ar  
    46    23    43 1   
    47    24    44 1   
    48    45    46 1   
@<TRIPOS>SUBSTRUCTURE
     1 4V3         1 TEMP              0 ****  ****    0 ROOT
