@<TRIPOS>MOLECULE
4V4
   48    49     1     0     0
SMALL
bcc


@<TRIPOS>ATOM
      1 N01         -3.6410    -1.1060     0.0650 nb         1 4V4      -0.754000
      2 C02         -4.8890    -1.5000     0.2910 ca         1 4V4       0.665200
      3 N02         -5.0670    -2.7830     0.7240 nv         1 4V4      -0.945500
      4 C03         -5.9890    -0.6360     0.1400 ca         1 4V4      -0.316300
      5 C04         -5.7680     0.6680    -0.2490 ca         1 4V4       0.000700
      6 C05         -4.4460     1.0750    -0.4710 ca         1 4V4      -0.298300
      7 C06         -3.4240     0.1590    -0.3060 ca         1 4V4       0.464600
      8 C07         -6.9010     1.6330    -0.4220 c3         1 4V4      -0.053800
      9 C08         -1.9900     0.5470    -0.5230 c3         1 4V4      -0.124700
     10 C09         -1.1550     0.4260     0.7590 c3         1 4V4      -0.029100
     11 C11          0.2760     0.8270     0.5270 ca         1 4V4      -0.037300
     12 C12          0.6880     2.1390     0.7390 ca         1 4V4      -0.181000
     13 C13          2.0080     2.4800     0.4760 ca         1 4V4      -0.086000
     14 C14          2.9160     1.5500     0.0020 ca         1 4V4      -0.211000
     15 C15          2.5190     0.2190    -0.2390 ca         1 4V4       0.200600
     16 C16          1.1830    -0.1130     0.0510 ca         1 4V4      -0.207000
     17 C17          2.9780    -2.1050    -0.8070 c3         1 4V4       0.218100
     18 N17          3.3800    -0.7200    -0.7450 nh         1 4V4      -0.696000
     19 C18          4.7640    -0.4100    -1.0150 c3         1 4V4       0.228800
     20 C19          5.6700    -0.5310     0.2070 c3         1 4V4       0.123800
     21 N20          7.0310    -0.1830    -0.1390 n7         1 4V4      -0.804200
     22 C21          7.9340    -0.2430     0.9920 c3         1 4V4       0.146100
     23 HN02        -4.3090    -3.4210     0.5420 hn         1 4V4       0.412300
     24 HN0A        -5.9810    -3.1890     0.6130 hn         1 4V4       0.412300
     25 H03         -6.9930    -0.9970     0.3270 ha         1 4V4       0.136000
     26 H05         -4.2250     2.0910    -0.7740 ha         1 4V4       0.140000
     27 H07         -6.8310     2.4440     0.3050 hc         1 4V4       0.046033
     28 H07A        -6.8770     2.0900    -1.4120 hc         1 4V4       0.046033
     29 H07B        -7.8670     1.1490    -0.2940 hc         1 4V4       0.046033
     30 H08         -1.5520    -0.0980    -1.2920 hc         1 4V4       0.055200
     31 H08A        -1.9350     1.5700    -0.9000 hc         1 4V4       0.055200
     32 H09         -1.5970     1.0570     1.5350 hc         1 4V4       0.056200
     33 H09A        -1.2080    -0.6040     1.1170 hc         1 4V4       0.056200
     34 H12         -0.0100     2.8790     1.1100 ha         1 4V4       0.129000
     35 H13          2.3460     3.4940     0.6520 ha         1 4V4       0.124000
     36 H14          3.9350     1.8690    -0.1680 ha         1 4V4       0.133000
     37 H16          0.8270    -1.1240    -0.1030 ha         1 4V4       0.130000
     38 H17          2.1360    -2.2600    -1.4870 h1         1 4V4       0.033700
     39 H17A         3.8090    -2.7010    -1.1770 h1         1 4V4       0.033700
     40 H17B         2.6950    -2.5070     0.1710 h1         1 4V4       0.033700
     41 H18          5.1170    -1.0910    -1.7940 h1         1 4V4       0.054200
     42 H18A         4.8530     0.5910    -1.4420 h1         1 4V4       0.054200
     43 H19          5.3240     0.1540     0.9880 h1         1 4V4       0.037200
     44 H19A         5.5770    -1.5460     0.6270 h1         1 4V4       0.037200
     45 HN20         7.3610    -0.8200    -0.8540 hn         1 4V4       0.347800
     46 H21          8.9540    -0.0500     0.6610 h1         1 4V4       0.030367
     47 H21A         7.6730     0.5280     1.7190 h1         1 4V4       0.030367
     48 H21B         7.9280    -1.2060     1.5210 h1         1 4V4       0.030367
@<TRIPOS>BOND
     1     1     2 ar  
     2     1     7 ar  
     3     2     3 1   
     4     2     4 ar  
     5     3    23 1   
     6     3    24 1   
     7     4     5 ar  
     8     4    25 1   
     9     5     6 ar  
    10     5     8 1   
    11     6     7 ar  
    12     6    26 1   
    13     7     9 1   
    14     8    27 1   
    15     8    28 1   
    16     8    29 1   
    17     9    10 1   
    18     9    30 1   
    19     9    31 1   
    20    10    11 1   
    21    10    32 1   
    22    10    33 1   
    23    11    12 ar  
    24    11    16 ar  
    25    12    13 ar  
    26    12    34 1   
    27    13    14 ar  
    28    13    35 1   
    29    14    15 ar  
    30    14    36 1   
    31    15    16 ar  
    32    15    18 1   
    33    16    37 1   
    34    17    18 1   
    35    17    38 1   
    36    17    39 1   
    37    17    40 1   
    38    18    19 1   
    39    19    20 1   
    40    19    41 1   
    41    19    42 1   
    42    20    21 1   
    43    20    43 1   
    44    20    44 1   
    45    21    22 1   
    46    21    45 1   
    47    22    46 1   
    48    22    47 1   
    49    22    48 1   
@<TRIPOS>SUBSTRUCTURE
     1 4V4         1 TEMP              0 ****  ****    0 ROOT
