@<TRIPOS>MOLECULE
4V4
   48    49     1     0     0
SMALL
No Charge or Current Charge


@<TRIPOS>ATOM
      1 N01         -3.8810    -1.2580    -0.6540 nb         1 4V4      -0.754000
      2 C02         -5.1680    -1.5430    -0.5270 ca         1 4V4       0.599900
      3 N02         -5.3920    -2.8470    -0.6980 nv         1 4V4      -1.055900
      4 C03         -6.1770    -0.6150    -0.2630 ca         1 4V4      -0.233000
      5 C04         -5.8200     0.7330    -0.1110 ca         1 4V4       0.000700
      6 C05         -4.4590     1.0570    -0.2360 ca         1 4V4      -0.215000
      7 C06         -3.5260     0.0380    -0.5090 ca         1 4V4       0.399300
      8 C07         -6.8610     1.7990     0.1840 c3         1 4V4      -0.053800
      9 C08         -2.0450     0.3590    -0.6440 c3         1 4V4      -0.124700
     10 C09         -1.3460     0.5090     0.7250 c3         1 4V4      -0.029100
     11 C11          0.1290     0.8590     0.5800 ca         1 4V4      -0.037300
     12 C12          0.5450     2.2010     0.6000 ca         1 4V4      -0.163000
     13 C13          1.9030     2.5200     0.4590 ca         1 4V4      -0.068000
     14 C14          2.8520     1.4970     0.2940 ca         1 4V4      -0.193000
     15 C15          2.4560     0.1440     0.2680 ca         1 4V4       0.339000
     16 C16          1.0860    -0.1600     0.4130 ca         1 4V4      -0.189000
     17 C17          3.1760    -2.2540     0.6310 c3         1 4V4       0.218100
     18 N17          3.4150    -0.8900     0.1030 nh         1 4V4      -0.834400
     19 C18          4.6510    -0.6880    -0.7020 c3         1 4V4       0.228800
     20 C19          5.9390    -0.4460     0.1380 c3         1 4V4       0.123800
     21 N20          7.1400    -0.2480    -0.7140 n7         1 4V4      -0.859400
     22 C21          8.3870     0.0400     0.0210 c3         1 4V4       0.146100
     23 HN02        -4.6210    -3.3570    -1.1130 hn         1 4V4       0.467500
     24 HN0A        -6.3250    -3.1330    -0.9720 hn         1 4V4       0.467500
     25 H03         -7.2110    -0.9340    -0.1750 ha         1 4V4       0.118000
     26 H05         -4.1230     2.0840    -0.1240 ha         1 4V4       0.122000
     27 H07         -6.9730     1.9450     1.2650 hc         1 4V4       0.046033
     28 H07A        -6.5810     2.7630    -0.2580 hc         1 4V4       0.046033
     29 H07B        -7.8420     1.5230    -0.2210 hc         1 4V4       0.046033
     30 H08         -1.5340    -0.4190    -1.2240 hc         1 4V4       0.055200
     31 H08A        -1.9230     1.2910    -1.2100 hc         1 4V4       0.055200
     32 H09         -1.8610     1.2800     1.3110 hc         1 4V4       0.056200
     33 H09A        -1.4570    -0.4260     1.2880 hc         1 4V4       0.056200
     34 H12         -0.1840     2.9980     0.7240 ha         1 4V4       0.111000
     35 H13          2.2230     3.5600     0.4780 ha         1 4V4       0.106000
     36 H14          3.8980     1.7660     0.1980 ha         1 4V4       0.115000
     37 H16          0.7530    -1.1920     0.3840 ha         1 4V4       0.112000
     38 H17          2.5390    -2.8270    -0.0560 h1         1 4V4       0.033700
     39 H17A         4.1240    -2.7960     0.7580 h1         1 4V4       0.033700
     40 H17B         2.6870    -2.2060     1.6130 h1         1 4V4       0.033700
     41 H18          4.8130    -1.5680    -1.3400 h1         1 4V4       0.054200
     42 H18A         4.5150     0.1590    -1.3890 h1         1 4V4       0.054200
     43 H19          5.7800     0.4360     0.7730 h1         1 4V4       0.037200
     44 H19A         6.0890    -1.3050     0.8060 h1         1 4V4       0.037200
     45 HN20         7.2890    -1.1020    -1.2700 hn         1 4V4       0.403000
     46 H21          9.2230     0.1840    -0.6760 h1         1 4V4       0.030367
     47 H21A         8.2850     0.9530     0.6230 h1         1 4V4       0.030367
     48 H21B         8.6450    -0.7890     0.6950 h1         1 4V4       0.030367
@<TRIPOS>BOND
     1     1     2 ar  
     2     1     7 ar  
     3     2     3 1   
     4     2     4 ar  
     5     3    23 1   
     6     3    24 1   
     7     4     5 ar  
     8     4    25 1   
     9     5     6 ar  
    10     5     8 1   
    11     6     7 ar  
    12     6    26 1   
    13     7     9 1   
    14     8    27 1   
    15     8    28 1   
    16     8    29 1   
    17     9    10 1   
    18     9    30 1   
    19     9    31 1   
    20    10    11 1   
    21    10    32 1   
    22    10    33 1   
    23    11    12 ar  
    24    11    16 ar  
    25    12    13 ar  
    26    12    34 1   
    27    13    14 ar  
    28    13    35 1   
    29    14    15 ar  
    30    14    36 1   
    31    15    16 ar  
    32    15    18 1   
    33    16    37 1   
    34    17    18 1   
    35    17    38 1   
    36    17    39 1   
    37    17    40 1   
    38    18    19 1   
    39    19    20 1   
    40    19    41 1   
    41    19    42 1   
    42    20    21 1   
    43    20    43 1   
    44    20    44 1   
    45    21    22 1   
    46    21    45 1   
    47    22    46 1   
    48    22    47 1   
    49    22    48 1   
@<TRIPOS>SUBSTRUCTURE
     1 4V4         1 TEMP              0 ****  ****    0 ROOT
