@<TRIPOS>MOLECULE
4V5
   44    45     1     0     0
SMALL
No Charge or Current Charge


@<TRIPOS>ATOM
      1 C21          5.9430     1.4290     0.6240 ca         1 4V5      -0.174000
      2 C01         -2.5420     1.1770     0.1450 c6         1 4V5       0.158300
      3 C02         -1.8580    -0.1400    -0.3290 c6         1 4V5       0.094700
      4 C03         -2.6370    -1.3670     0.2570 c6         1 4V5       0.371300
      5 O04         -4.0370    -1.2820    -0.0680 os         1 4V5      -0.464000
      6 C05         -4.7270    -0.0860     0.3970 c6         1 4V5       0.145300
      7 C06         -4.0550     1.1800    -0.2230 c6         1 4V5       0.102300
      8 N07         -0.4200    -0.1570     0.0330 ns         1 4V5      -0.494900
      9 O08         -4.6650     2.4080     0.2390 oh         1 4V5      -0.722000
     10 C10         -6.2400    -0.2210     0.0170 c3         1 4V5       0.168600
     11 O11         -2.5350    -1.4550     1.6780 oh         1 4V5      -0.685000
     12 O12         -6.8530    -1.4180     0.5340 oh         1 4V5      -0.706000
     13 C13          0.5220    -1.0030    -0.4980 c          1 4V5       0.607100
     14 C14          1.9440    -0.8170     0.0360 c3         1 4V5      -0.156400
     15 O15          0.2300    -1.8630    -1.3160 o          1 4V5      -0.602100
     16 C16          2.8580    -0.1540    -1.0180 c3         1 4V5      -0.013100
     17 C17          4.2750     0.0460    -0.4970 ca         1 4V5      -0.121300
     18 C18          5.2350    -0.9760    -0.6400 ca         1 4V5      -0.068500
     19 C19          6.5420    -0.7940    -0.1540 ca         1 4V5      -0.174000
     20 C20          6.8940     0.4100     0.4770 ca         1 4V5       0.137100
     21 C22          4.6350     1.2500     0.1400 ca         1 4V5      -0.068500
     22 O23          8.1580     0.5940     0.9500 oh         1 4V5      -0.535100
     23 H1           6.2160     2.3600     1.1140 ha         1 4V5       0.120000
     24 H2          -2.4640     1.2260     1.2420 h1         1 4V5       0.056700
     25 H3          -1.9330    -0.1920    -1.4250 h1         1 4V5       0.106700
     26 H4          -2.2250    -2.2840    -0.1940 h2         1 4V5       0.078700
     27 H5          -4.6620    -0.0300     1.4940 h1         1 4V5       0.074700
     28 H6          -4.1410     1.1100    -1.3190 h1         1 4V5       0.054700
     29 H7          -0.0900     0.5280     0.7020 hn         1 4V5       0.322500
     30 H8          -5.4720     2.5680    -0.3050 ho         1 4V5       0.510000
     31 H10         -6.7730     0.6600     0.3990 h1         1 4V5       0.024700
     32 H11         -6.3210    -0.2020    -1.0780 h1         1 4V5       0.024700
     33 H12         -3.1440    -2.1820     1.9280 ho         1 4V5       0.462000
     34 H13         -7.7710    -1.4480     0.1770 ho         1 4V5       0.504000
     35 H14          1.9320    -0.1830     0.9310 hc         1 4V5       0.058700
     36 H15          2.3590    -1.8010     0.2840 hc         1 4V5       0.058700
     37 H16          2.8740    -0.7730    -1.9250 hc         1 4V5       0.063200
     38 H17          2.4250     0.8100    -1.3170 hc         1 4V5       0.063200
     39 H18          4.9670    -1.9120    -1.1260 ha         1 4V5       0.113500
     40 H19          7.2720    -1.5900    -0.2720 ha         1 4V5       0.120000
     41 H20          3.9020     2.0450     0.2610 ha         1 4V5       0.113500
     42 H21          8.6810    -0.2150     0.7610 ho         1 4V5       0.463000
     43 O09         -1.9080     2.3330    -0.4260 oh         1 4V5      -0.647000
     44 H9          -2.5620     3.0580    -0.3000 ho         1 4V5       0.455000
@<TRIPOS>BOND
     1     1    20 ar  
     2     1    21 ar  
     3     1    23 1   
     4     2     3 1   
     5     2     7 1   
     6     2    24 1   
     7     2    43 1   
     8     3     4 1   
     9     3     8 1   
    10     3    25 1   
    11     4     5 1   
    12     4    11 1   
    13     4    26 1   
    14     5     6 1   
    15     6     7 1   
    16     6    10 1   
    17     6    27 1   
    18     7     9 1   
    19     7    28 1   
    20     8    13 1   
    21     8    29 1   
    22     9    30 1   
    23    10    12 1   
    24    10    31 1   
    25    10    32 1   
    26    11    33 1   
    27    12    34 1   
    28    13    14 1   
    29    13    15 2   
    30    14    16 1   
    31    14    35 1   
    32    14    36 1   
    33    16    17 1   
    34    16    37 1   
    35    16    38 1   
    36    17    18 ar  
    37    17    21 ar  
    38    18    19 ar  
    39    18    39 1   
    40    19    20 ar  
    41    19    40 1   
    42    20    22 1   
    43    21    41 1   
    44    22    42 1   
    45    43    44 1   
@<TRIPOS>SUBSTRUCTURE
     1 4V5         1 TEMP              0 ****  ****    0 ROOT
