@<TRIPOS>MOLECULE
4V5
   44    45     1     0     0
SMALL
abcg2


@<TRIPOS>ATOM
      1 C21          6.1630     1.3310     0.3960 ca         1 4V5      -0.174000
      2 C01         -2.6190     1.1130     0.1030 c6         1 4V5       0.158300
      3 C02         -1.9310    -0.1940    -0.2790 c6         1 4V5       0.094700
      4 C03         -2.6360    -1.3830     0.3760 c6         1 4V5       0.371300
      5 O04         -4.0000    -1.3790     0.0640 os         1 4V5      -0.464000
      6 C05         -4.7160    -0.2180     0.4550 c6         1 4V5       0.145300
      7 C06         -4.1080     1.0180    -0.2160 c6         1 4V5       0.102300
      8 N07         -0.5310    -0.1760     0.0520 ns         1 4V5      -0.494900
      9 O08         -4.7140     2.2060     0.2470 oh         1 4V5      -0.722000
     10 C10         -6.1610    -0.4240     0.0560 c3         1 4V5       0.168600
     11 O11         -2.3970    -1.3240     1.7460 oh         1 4V5      -0.685000
     12 O12         -6.6890    -1.5040     0.7890 oh         1 4V5      -0.706000
     13 C13          0.4660    -0.2720    -0.8480 c          1 4V5       0.607100
     14 C14          1.8550    -0.2410    -0.2430 c3         1 4V5      -0.156400
     15 O15          0.2770    -0.3980    -2.0490 o          1 4V5      -0.602100
     16 C16          2.9430     0.1290    -1.2480 c3         1 4V5      -0.013100
     17 C17          4.3060     0.1340    -0.6110 ca         1 4V5      -0.121300
     18 C18          4.9890    -1.0540    -0.3660 ca         1 4V5      -0.068500
     19 C19          6.2330    -1.0650     0.2460 ca         1 4V5      -0.174000
     20 C20          6.8290     0.1320     0.6330 ca         1 4V5       0.137100
     21 C22          4.9180     1.3210    -0.2160 ca         1 4V5      -0.068500
     22 O23          8.0390     0.1850     1.2310 oh         1 4V5      -0.535100
     23 H1           6.6200     2.2690     0.6860 ha         1 4V5       0.120000
     24 H2          -2.5150     1.2730     1.1880 h1         1 4V5       0.056700
     25 H3          -2.0110    -0.3210    -1.3600 h1         1 4V5       0.106700
     26 H4          -2.2500    -2.3140    -0.0540 h2         1 4V5       0.078700
     27 H5          -4.6680    -0.0820     1.5440 h1         1 4V5       0.074700
     28 H6          -4.2170     0.9190    -1.3060 h1         1 4V5       0.054700
     29 H7          -0.2850    -0.0660     1.0240 hn         1 4V5       0.322500
     30 H8          -5.4250     2.4520    -0.3500 ho         1 4V5       0.510000
     31 H10         -6.7090     0.5030     0.2580 h1         1 4V5       0.024700
     32 H11         -6.2140    -0.6010    -1.0280 h1         1 4V5       0.024700
     33 H12         -2.6320    -2.1670     2.1480 ho         1 4V5       0.462000
     34 H13         -7.6200    -1.5870     0.5650 ho         1 4V5       0.504000
     35 H14          1.8750     0.4480     0.6060 hc         1 4V5       0.058700
     36 H15          2.0580    -1.2340     0.1720 hc         1 4V5       0.058700
     37 H16          2.9250    -0.5770    -2.0810 hc         1 4V5       0.063200
     38 H17          2.7320     1.1150    -1.6680 hc         1 4V5       0.063200
     39 H18          4.5470    -1.9990    -0.6620 ha         1 4V5       0.113500
     40 H19          6.7390    -2.0080     0.4180 ha         1 4V5       0.120000
     41 H20          4.4170     2.2650    -0.3950 ha         1 4V5       0.113500
     42 H21          8.3910    -0.7040     1.3520 ho         1 4V5       0.463000
     43 O09         -2.0010     2.1510    -0.6110 oh         1 4V5      -0.647000
     44 H9          -2.4410     2.9740    -0.3730 ho         1 4V5       0.455000
@<TRIPOS>BOND
     1     1    20 ar  
     2     1    21 ar  
     3     1    23 1   
     4     2     3 1   
     5     2     7 1   
     6     2    24 1   
     7     2    43 1   
     8     3     4 1   
     9     3     8 1   
    10     3    25 1   
    11     4     5 1   
    12     4    11 1   
    13     4    26 1   
    14     5     6 1   
    15     6     7 1   
    16     6    10 1   
    17     6    27 1   
    18     7     9 1   
    19     7    28 1   
    20     8    13 1   
    21     8    29 1   
    22     9    30 1   
    23    10    12 1   
    24    10    31 1   
    25    10    32 1   
    26    11    33 1   
    27    12    34 1   
    28    13    14 1   
    29    13    15 2   
    30    14    16 1   
    31    14    35 1   
    32    14    36 1   
    33    16    17 1   
    34    16    37 1   
    35    16    38 1   
    36    17    18 ar  
    37    17    21 ar  
    38    18    19 ar  
    39    18    39 1   
    40    19    20 ar  
    41    19    40 1   
    42    20    22 1   
    43    21    41 1   
    44    22    42 1   
    45    43    44 1   
@<TRIPOS>SUBSTRUCTURE
     1 4V5         1 TEMP              0 ****  ****    0 ROOT
