@<TRIPOS>MOLECULE
4V6
   29    30     1     0     0
SMALL
abcg2


@<TRIPOS>ATOM
      1 C1           1.5650     0.7880     0.0330 ca         1 4V6       0.009000
      2 C2           0.3140     0.1790    -0.0490 ca         1 4V6      -0.306500
      3 C3           0.1640    -1.2080    -0.0950 ca         1 4V6       0.369000
      4 C4           1.3350    -1.9760    -0.1050 ca         1 4V6      -0.142000
      5 C5           2.5800    -1.3890    -0.0500 ca         1 4V6      -0.035000
      6 C6           2.6910    -0.0040     0.0340 ca         1 4V6       0.080000
      7 S1          -1.0480     1.2940    -0.2060 sy         1 4V6       1.146600
      8 N1          -2.2750     0.2190    -0.4510 n3         1 4V6      -0.755500
      9 C7          -2.1850    -1.0210     0.3430 c6         1 4V6       0.463700
     10 N2          -1.0810    -1.8270    -0.1130 nh         1 4V6      -0.781400
     11 CL1          4.2550     0.7260     0.1300 cl         1 4V6      -0.189000
     12 C8          -1.3570    -2.6750    -1.2660 c3         1 4V6       0.189100
     13 C9          -2.1560    -0.8370     1.8560 c3         1 4V6      -0.123100
     14 C10         -3.5970     0.8280    -0.5680 c3         1 4V6       0.179100
     15 O1          -1.1940     2.0610     1.0270 o          1 4V6      -0.536500
     16 O2          -0.8800     2.0770    -1.4220 o          1 4V6      -0.536500
     17 H1           1.6570     1.8660     0.0790 ha         1 4V6       0.145000
     18 H2           1.2610    -3.0550    -0.1350 ha         1 4V6       0.126000
     19 H3           3.4660    -2.0100    -0.0500 ha         1 4V6       0.132000
     20 H4          -3.0980    -1.5620     0.0930 h2         1 4V6       0.075700
     21 H5          -0.5450    -3.3830    -1.4180 h1         1 4V6       0.046033
     22 H6          -2.2620    -3.2510    -1.0780 h1         1 4V6       0.046033
     23 H7          -1.4910    -2.1000    -2.1870 h1         1 4V6       0.046033
     24 H8          -2.9470    -0.1620     2.1810 hc         1 4V6       0.061700
     25 H9          -2.3290    -1.8030     2.3260 hc         1 4V6       0.061700
     26 H10         -1.2080    -0.4500     2.2270 hc         1 4V6       0.061700
     27 H11         -3.5630     1.6660    -1.2620 h1         1 4V6       0.055700
     28 H12         -4.2700     0.0810    -0.9840 h1         1 4V6       0.055700
     29 H13         -4.0010     1.1750     0.3850 h1         1 4V6       0.055700
@<TRIPOS>BOND
     1     1     2 ar  
     2     1     6 ar  
     3     1    17 1   
     4     2     3 ar  
     5     2     7 1   
     6     3     4 ar  
     7     3    10 1   
     8     4     5 ar  
     9     4    18 1   
    10     5     6 ar  
    11     5    19 1   
    12     6    11 1   
    13     7     8 1   
    14     7    15 2   
    15     7    16 2   
    16     8     9 1   
    17     8    14 1   
    18     9    10 1   
    19     9    13 1   
    20     9    20 1   
    21    10    12 1   
    22    12    21 1   
    23    12    22 1   
    24    12    23 1   
    25    13    24 1   
    26    13    25 1   
    27    13    26 1   
    28    14    27 1   
    29    14    28 1   
    30    14    29 1   
@<TRIPOS>SUBSTRUCTURE
     1 4V6         1 TEMP              0 ****  ****    0 ROOT
