@<TRIPOS>MOLECULE
4V6
   29    30     1     0     0
SMALL
No Charge or Current Charge


@<TRIPOS>ATOM
      1 C1           1.6700     0.8160     0.0650 ca         1 4V6       0.009000
      2 C2           0.3840     0.2790    -0.1520 ca         1 4V6      -0.306500
      3 C3           0.1900    -1.1020    -0.2420 ca         1 4V6       0.369000
      4 C4           1.3060    -1.9550    -0.1100 ca         1 4V6      -0.142000
      5 C5           2.5930    -1.4290     0.1070 ca         1 4V6      -0.035000
      6 C6           2.7740    -0.0410     0.1940 ca         1 4V6       0.080000
      7 S1          -0.9930     1.3840    -0.3420 sy         1 4V6       1.146600
      8 N1          -2.3330     0.3740    -0.5570 n3         1 4V6      -0.755500
      9 C7          -2.2680    -0.9330     0.0720 c6         1 4V6       0.463700
     10 N2          -1.0950    -1.6340    -0.4410 nh         1 4V6      -0.781400
     11 Cl1          4.3800     0.6240     0.4650 cl         1 4V6      -0.189000
     12 C8          -1.3180    -2.9110    -1.1560 c3         1 4V6       0.189100
     13 C9          -2.2710    -0.9330     1.6240 c3         1 4V6      -0.123100
     14 C10         -3.6330     1.0600    -0.4100 c3         1 4V6       0.179100
     15 O1          -1.1710     2.1030     0.9250 o          1 4V6      -0.536500
     16 O2          -0.7940     2.1050    -1.6040 o          1 4V6      -0.536500
     17 H1           1.8170     1.8930     0.1300 ha         1 4V6       0.145000
     18 H2           1.1800    -3.0310    -0.1600 ha         1 4V6       0.126000
     19 H3           3.4450    -2.0960     0.2100 ha         1 4V6       0.132000
     20 H4          -3.1620    -1.4970    -0.2430 h2         1 4V6       0.075700
     21 H5          -0.5410    -3.0680    -1.9160 h1         1 4V6       0.046033
     22 H6          -1.2990    -3.7540    -0.4530 h1         1 4V6       0.046033
     23 H7          -2.2860    -2.9060    -1.6730 h1         1 4V6       0.046033
     24 H8          -3.1660    -0.4410     2.0190 hc         1 4V6       0.061700
     25 H9          -2.2710    -1.9600     2.0040 hc         1 4V6       0.061700
     26 H10         -1.3950    -0.4290     2.0460 hc         1 4V6       0.061700
     27 H11         -3.6880     1.9380    -1.0680 h1         1 4V6       0.055700
     28 H12         -4.4600     0.3910    -0.6820 h1         1 4V6       0.055700
     29 H13         -3.7940     1.3990     0.6220 h1         1 4V6       0.055700
@<TRIPOS>BOND
     1     1     2 ar  
     2     1     6 ar  
     3     1    17 1   
     4     2     3 ar  
     5     2     7 1   
     6     3     4 ar  
     7     3    10 1   
     8     4     5 ar  
     9     4    18 1   
    10     5     6 ar  
    11     5    19 1   
    12     6    11 1   
    13     7     8 1   
    14     7    15 2   
    15     7    16 2   
    16     8     9 1   
    17     8    14 1   
    18     9    10 1   
    19     9    13 1   
    20     9    20 1   
    21    10    12 1   
    22    12    21 1   
    23    12    22 1   
    24    12    23 1   
    25    13    24 1   
    26    13    25 1   
    27    13    26 1   
    28    14    27 1   
    29    14    28 1   
    30    14    29 1   
@<TRIPOS>SUBSTRUCTURE
     1 4V6         1 TEMP              0 ****  ****    0 ROOT
