@<TRIPOS>MOLECULE
4V7
   61    65     1     0     0
SMALL
No Charge or Current Charge


@<TRIPOS>ATOM
      1 N            6.3590    -2.4400    -0.8930 nb         1 4V7      -0.656000
      2 C            5.5130     0.2240    -1.4820 ca         1 4V7      -0.058000
      3 O            2.5250    -3.0630     2.6720 oh         1 4V7      -0.681000
      4 F1           7.3620     0.4010    -2.9880 f          1 4V7      -0.177000
      5 C1           6.6510    -0.3280    -2.0970 ca         1 4V7       0.084000
      6 C2           7.0380    -1.6530    -1.7750 ca         1 4V7       0.319900
      7 C3           5.2710    -1.8930    -0.3130 ca         1 4V7       0.340500
      8 N1           4.3950    -2.4430     0.5990 na         1 4V7      -0.295400
      9 C6           3.3770    -1.5410     0.9650 cc         1 4V7       0.023700
     10 C7           2.2840    -1.8280     1.9730 c3         1 4V7       0.212800
     11 C5           3.6530    -0.3970     0.2280 cd         1 4V7      -0.234000
     12 C4           4.8420    -0.6070    -0.5720 ca         1 4V7      -0.070800
     13 C8           2.9200     0.8760     0.3110 ca         1 4V7       0.278800
     14 N3           1.5730     0.7990     0.2750 nb         1 4V7      -0.288000
     15 C11          0.8910     1.9560     0.3530 ca         1 4V7       0.381900
     16 C10          1.5610     3.1910     0.4580 ca         1 4V7      -0.038000
     17 F            0.8860     4.3650     0.5370 f          1 4V7      -0.176000
     18 C9           2.9650     3.1700     0.4820 ca         1 4V7       0.118900
     19 N2           3.6480     2.0100     0.4100 nb         1 4V7      -0.206000
     20 N4          -0.5040     1.8850     0.3310 nu         1 4V7      -0.924100
     21 C12         -1.3050     0.6660     0.5310 c6         1 4V7       0.243500
     22 C17         -2.7520     0.9190     0.0420 c6         1 4V7      -0.100400
     23 C16         -3.6430    -0.3310     0.2600 c6         1 4V7       0.123700
     24 C15         -3.6380    -0.7230     1.7610 c6         1 4V7      -0.104400
     25 C14         -2.1990    -0.9680     2.2790 c6         1 4V7      -0.067400
     26 C13         -1.3010     0.2680     2.0290 c6         1 4V7      -0.103400
     27 N5          -5.0100    -0.0590    -0.1940 ns         1 4V7      -0.515900
     28 C18         -5.9250    -1.0020    -0.5890 c          1 4V7       0.658100
     29 O1          -5.6620    -2.1940    -0.6170 o          1 4V7      -0.648100
     30 N6          -7.1820    -0.5060    -0.9580 n          1 4V7      -0.439800
     31 C22         -7.5480     0.9290    -0.9630 c5         1 4V7       0.110500
     32 C21         -8.8810     0.9090    -1.7540 c5         1 4V7      -0.094900
     33 C20         -9.5040    -0.4310    -1.2920 c5         1 4V7      -0.094900
     34 C19         -8.2880    -1.3890    -1.3800 c5         1 4V7       0.110500
     35 H3           5.1790     1.2330    -1.7100 ha         1 4V7       0.159000
     36 H7           1.7870    -3.1760     3.3120 ho         1 4V7       0.462000
     37 H4           7.9160    -2.0980    -2.2420 h4         1 4V7       0.036100
     38 H            4.4880    -3.3770     0.9750 hn         1 4V7       0.382000
     39 H6           1.3230    -1.8690     1.4420 h1         1 4V7       0.058200
     40 H5           2.2330    -0.9890     2.6810 h1         1 4V7       0.058200
     41 H8           3.5480     4.0850     0.5620 h4         1 4V7       0.036100
     42 H9          -0.9760     2.7870     0.3980 hn         1 4V7       0.502000
     43 H1          -0.8910    -0.1660    -0.0620 h1         1 4V7       0.076700
     44 H16         -3.1830     1.7800     0.5720 hc         1 4V7       0.051200
     45 H17         -2.7400     1.1780    -1.0260 hc         1 4V7       0.051200
     46 H2          -3.2360    -1.1650    -0.3320 h1         1 4V7       0.081700
     47 H15         -4.1130     0.0690     2.3560 hc         1 4V7       0.051700
     48 H14         -4.2400    -1.6290     1.9130 hc         1 4V7       0.051700
     49 H13         -2.2220    -1.2010     3.3520 hc         1 4V7       0.044200
     50 H12         -1.7680    -1.8460     1.7780 hc         1 4V7       0.044200
     51 H10         -0.2780     0.0520     2.3630 hc         1 4V7       0.051700
     52 H11         -1.6560     1.1090     2.6410 hc         1 4V7       0.051700
     53 H18         -5.3280     0.9000    -0.2020 hn         1 4V7       0.301500
     54 H26         -7.6940     1.2940     0.0630 h1         1 4V7       0.047950
     55 H25         -6.7950     1.5570    -1.4590 h1         1 4V7       0.047950
     56 H24         -9.5150     1.7750    -1.5300 hc         1 4V7       0.055200
     57 H23         -8.6980     0.9070    -2.8360 hc         1 4V7       0.055200
     58 H22         -9.8760    -0.3610    -0.2630 hc         1 4V7       0.055200
     59 H21        -10.3390    -0.7550    -1.9230 hc         1 4V7       0.055200
     60 H20         -8.1270    -1.7440    -2.4070 h1         1 4V7       0.047950
     61 H19         -8.4040    -2.2600    -0.7220 h1         1 4V7       0.047950
@<TRIPOS>BOND
     1     1     6 ar  
     2     1     7 ar  
     3     2     5 ar  
     4     2    12 ar  
     5     2    35 1   
     6     3    10 1   
     7     3    36 1   
     8     4     5 1   
     9     5     6 ar  
    10     6    37 1   
    11     7     8 1   
    12     7    12 ar  
    13     8     9 1   
    14     8    38 1   
    15     9    10 1   
    16     9    11 2   
    17    10    39 1   
    18    10    40 1   
    19    11    12 1   
    20    11    13 1   
    21    13    14 ar  
    22    13    19 ar  
    23    14    15 ar  
    24    15    16 ar  
    25    15    20 1   
    26    16    17 1   
    27    16    18 ar  
    28    18    19 ar  
    29    18    41 1   
    30    20    21 1   
    31    20    42 1   
    32    21    22 1   
    33    21    26 1   
    34    21    43 1   
    35    22    23 1   
    36    22    44 1   
    37    22    45 1   
    38    23    24 1   
    39    23    27 1   
    40    23    46 1   
    41    24    25 1   
    42    24    47 1   
    43    24    48 1   
    44    25    26 1   
    45    25    49 1   
    46    25    50 1   
    47    26    51 1   
    48    26    52 1   
    49    27    28 1   
    50    27    53 1   
    51    28    29 2   
    52    28    30 1   
    53    30    31 1   
    54    30    34 1   
    55    31    32 1   
    56    31    54 1   
    57    31    55 1   
    58    32    33 1   
    59    32    56 1   
    60    32    57 1   
    61    33    34 1   
    62    33    58 1   
    63    33    59 1   
    64    34    60 1   
    65    34    61 1   
@<TRIPOS>SUBSTRUCTURE
     1 4V7         1 TEMP              0 ****  ****    0 ROOT
