@<TRIPOS>MOLECULE
4V7
   61    65     1     0     0
SMALL
abcg2


@<TRIPOS>ATOM
      1 N            6.2450    -2.5760    -0.2150 nb         1 4V7      -0.656000
      2 C            6.0230     0.2390    -0.5000 ca         1 4V7      -0.058000
      3 O            1.4460    -3.3190     0.6230 oh         1 4V7      -0.681000
      4 F1           8.3500     0.2460    -0.8340 f          1 4V7      -0.177000
      5 C1           7.2180    -0.4390    -0.5960 ca         1 4V7       0.084000
      6 C2           7.3080    -1.8220    -0.4540 ca         1 4V7       0.319900
      7 C3           5.0980    -1.9330    -0.1220 ca         1 4V7       0.340500
      8 N1           3.8820    -2.5060     0.1210 na         1 4V7      -0.295400
      9 C6           2.9200    -1.5520     0.1550 cc         1 4V7       0.023700
     10 C7           1.4980    -1.9320     0.4100 c3         1 4V7       0.212800
     11 C5           3.4940    -0.3120    -0.0710 cd         1 4V7      -0.234000
     12 C4           4.8960    -0.5420    -0.2500 ca         1 4V7      -0.070800
     13 C8           2.8060     0.9640    -0.1120 ca         1 4V7       0.278800
     14 N3           1.4880     0.9450     0.0890 nb         1 4V7      -0.288000
     15 C11          0.8160     2.0900     0.0650 ca         1 4V7       0.381900
     16 C10          1.5320     3.2800    -0.1710 ca         1 4V7      -0.038000
     17 F            0.8740     4.4520    -0.2010 f          1 4V7      -0.176000
     18 C9           2.8770     3.2110    -0.3660 ca         1 4V7       0.118900
     19 N2           3.5380     2.0480    -0.3380 nb         1 4V7      -0.206000
     20 N4          -0.5130     2.0890     0.2430 nu         1 4V7      -0.924100
     21 C12         -1.2760     0.9050     0.5890 c6         1 4V7       0.243500
     22 C17         -2.7220     1.0950     0.1450 c6         1 4V7      -0.100400
     23 C16         -3.5660    -0.1340     0.4770 c6         1 4V7       0.123700
     24 C15         -3.4830    -0.4620     1.9670 c6         1 4V7      -0.104400
     25 C14         -2.0350    -0.6510     2.4050 c6         1 4V7      -0.067400
     26 C13         -1.1950     0.5780     2.0790 c6         1 4V7      -0.103400
     27 N5          -4.9230     0.0870     0.0230 ns         1 4V7      -0.515900
     28 C18         -5.7530    -0.9500    -0.2870 c          1 4V7       0.658100
     29 O1          -5.3680    -2.1180    -0.3090 o          1 4V7      -0.648100
     30 N6          -7.0280    -0.6130    -0.5940 n          1 4V7      -0.439800
     31 C22         -7.5340     0.7420    -0.7690 c5         1 4V7       0.110500
     32 C21         -8.8440     0.5310    -1.5200 c5         1 4V7      -0.094900
     33 C20         -9.3090    -0.8350    -1.0260 c5         1 4V7      -0.094900
     34 C19         -8.0120    -1.6300    -0.9400 c5         1 4V7       0.110500
     35 H3           5.9630     1.3120    -0.6110 ha         1 4V7       0.159000
     36 H7           0.5280    -3.5770     0.7390 ho         1 4V7       0.462000
     37 H4           8.2690    -2.3170    -0.5370 h4         1 4V7       0.036100
     38 H            3.7190    -3.4930     0.2520 hn         1 4V7       0.382000
     39 H6           0.8890    -1.6190    -0.4460 h1         1 4V7       0.058200
     40 H5           1.1290    -1.3610     1.2700 h1         1 4V7       0.058200
     41 H8           3.4520     4.1120    -0.5520 h4         1 4V7       0.036100
     42 H9          -0.9780     2.9790     0.3330 hn         1 4V7       0.502000
     43 H1          -0.8510     0.0680     0.0270 h1         1 4V7       0.076700
     44 H16         -3.1440     1.9740     0.6490 hc         1 4V7       0.051200
     45 H17         -2.7600     1.2900    -0.9290 hc         1 4V7       0.051200
     46 H2          -3.1710    -0.9820    -0.0870 h1         1 4V7       0.081700
     47 H15         -3.9350     0.3570     2.5380 hc         1 4V7       0.051700
     48 H14         -4.0670    -1.3600     2.1790 hc         1 4V7       0.051700
     49 H13         -1.9890    -0.8630     3.4750 hc         1 4V7       0.044200
     50 H12         -1.6120    -1.5260     1.8990 hc         1 4V7       0.044200
     51 H10         -0.1530     0.4190     2.3660 hc         1 4V7       0.051700
     52 H11         -1.5570     1.4390     2.6530 hc         1 4V7       0.051700
     53 H18         -5.3270     0.9800     0.2590 hn         1 4V7       0.301500
     54 H26         -7.7080     1.2300     0.1970 h1         1 4V7       0.047950
     55 H25         -6.8330     1.3610    -1.3340 h1         1 4V7       0.047950
     56 H24         -9.5610     1.3300    -1.3330 hc         1 4V7       0.055200
     57 H23         -8.6550     0.4970    -2.5950 hc         1 4V7       0.055200
     58 H22         -9.7610    -0.7430    -0.0350 hc         1 4V7       0.055200
     59 H21        -10.0390    -1.3060    -1.6830 hc         1 4V7       0.055200
     60 H20         -7.7750    -2.0990    -1.9000 h1         1 4V7       0.047950
     61 H19         -8.0530    -2.4180    -0.1880 h1         1 4V7       0.047950
@<TRIPOS>BOND
     1     1     6 ar  
     2     1     7 ar  
     3     2     5 ar  
     4     2    12 ar  
     5     2    35 1   
     6     3    10 1   
     7     3    36 1   
     8     4     5 1   
     9     5     6 ar  
    10     6    37 1   
    11     7     8 1   
    12     7    12 ar  
    13     8     9 1   
    14     8    38 1   
    15     9    10 1   
    16     9    11 2   
    17    10    39 1   
    18    10    40 1   
    19    11    12 1   
    20    11    13 1   
    21    13    14 ar  
    22    13    19 ar  
    23    14    15 ar  
    24    15    16 ar  
    25    15    20 1   
    26    16    17 1   
    27    16    18 ar  
    28    18    19 ar  
    29    18    41 1   
    30    20    21 1   
    31    20    42 1   
    32    21    22 1   
    33    21    26 1   
    34    21    43 1   
    35    22    23 1   
    36    22    44 1   
    37    22    45 1   
    38    23    24 1   
    39    23    27 1   
    40    23    46 1   
    41    24    25 1   
    42    24    47 1   
    43    24    48 1   
    44    25    26 1   
    45    25    49 1   
    46    25    50 1   
    47    26    51 1   
    48    26    52 1   
    49    27    28 1   
    50    27    53 1   
    51    28    29 2   
    52    28    30 1   
    53    30    31 1   
    54    30    34 1   
    55    31    32 1   
    56    31    54 1   
    57    31    55 1   
    58    32    33 1   
    59    32    56 1   
    60    32    57 1   
    61    33    34 1   
    62    33    58 1   
    63    33    59 1   
    64    34    60 1   
    65    34    61 1   
@<TRIPOS>SUBSTRUCTURE
     1 4V7         1 TEMP              0 ****  ****    0 ROOT
