@<TRIPOS>MOLECULE
4V8
   50    54     1     0     0
SMALL
No Charge or Current Charge


@<TRIPOS>ATOM
      1 C2          -4.0570     0.4610    -0.7430 cc         1 4V8      -0.093000
      2 C3          -2.9180     1.0480    -0.2660 cd         1 4V8      -0.190300
      3 C11         -5.8500    -1.1430    -0.1000 ca         1 4V8      -0.157000
      4 C12         -6.2670    -2.4580     0.1690 ca         1 4V8       0.340900
      5 C14         -4.1510    -3.2930    -0.2560 ca         1 4V8       0.340900
      6 C15         -3.6520    -2.0100    -0.5390 ca         1 4V8      -0.157000
      7 C16          0.5830     1.1190     0.9880 cc         1 4V8       0.283000
      8 C17          1.6250     1.9800     0.5310 cc         1 4V8      -0.338000
      9 C18          2.9460     1.6170     0.6610 cd         1 4V8      -0.007400
     10 C20          2.3320    -0.5050     1.7090 c          1 4V8       0.576200
     11 C21          0.9390    -0.0770     1.5460 cd         1 4V8      -0.447200
     12 C24          5.3290    -0.4820     0.0580 ca         1 4V8      -0.112300
     13 C25          6.0830     0.3620    -0.7830 ca         1 4V8      -0.084000
     14 C26          6.6210    -0.1320    -1.9840 ca         1 4V8      -0.115000
     15 C27          6.4090    -1.4710    -2.3530 ca         1 4V8      -0.100000
     16 C28          5.6580    -2.3160    -1.5190 ca         1 4V8      -0.115000
     17 C29          5.1200    -1.8240    -0.3180 ca         1 4V8      -0.084000
     18 N1          -4.7410     1.4890    -1.3880 na         1 4V8       0.008800
     19 C4          -2.9620     2.3910    -0.6830 cd         1 4V8       0.254300
     20 N5          -4.0490     2.6960    -1.3710 nc         1 4V8      -0.499800
     21 C6          -1.8180     0.4870     0.6120 c6         1 4V8       0.303100
     22 N7          -0.7370     1.4880     0.8480 nh         1 4V8      -0.679400
     23 C8          -1.2040     2.8980     0.9900 c6         1 4V8       0.226800
     24 C9          -1.8870     3.3730    -0.3100 c6         1 4V8      -0.115700
     25 C10         -4.5110    -0.8990    -0.4520 ca         1 4V8       0.021000
     26 N13         -5.4360    -3.5230     0.0960 nb         1 4V8      -0.656000
     27 N19          3.3070     0.4060     1.2430 n          1 4V8      -0.277000
     28 O22          2.6070    -1.5820     2.2190 o          1 4V8      -0.582000
     29 H1          -6.5640    -0.3290    -0.0200 ha         1 4V8       0.124500
     30 H2          -7.2980    -2.6650     0.4520 h4         1 4V8       0.024100
     31 H3          -3.5020    -4.1650    -0.3220 h4         1 4V8       0.024100
     32 H4          -2.6180    -1.9000    -0.8470 ha         1 4V8       0.124500
     33 H5           1.3700     2.9200     0.0550 ha         1 4V8       0.195000
     34 H6           3.7850     2.2210     0.3250 h4         1 4V8       0.193000
     35 H7           0.2100    -0.7800     1.9230 ha         1 4V8       0.202000
     36 H8           4.8860    -0.6920     2.1530 h1         1 4V8       0.064700
     37 H9           5.2960     0.9450     1.6690 h1         1 4V8       0.064700
     38 H10          6.2530     1.4010    -0.5070 ha         1 4V8       0.116000
     39 H11          7.2020     0.5240    -2.6290 ha         1 4V8       0.113000
     40 H12          6.8250    -1.8530    -3.2830 ha         1 4V8       0.112000
     41 H13          5.4920    -3.3530    -1.8030 ha         1 4V8       0.113000
     42 H14          4.5380    -2.4850     0.3210 ha         1 4V8       0.116000
     43 H15         -5.6490     1.4070    -1.8420 hn         1 4V8       0.377000
     44 H16         -2.2420     0.1620     1.5730 h1         1 4V8       0.055700
     45 H17         -1.3870    -0.4010     0.1310 h1         1 4V8       0.055700
     46 H18         -1.9290     2.9600     1.8160 h1         1 4V8       0.051200
     47 H19         -0.3800     3.5770     1.2490 h1         1 4V8       0.051200
     48 H20         -1.1450     3.4440    -1.1150 hc         1 4V8       0.068700
     49 H21         -2.3030     4.3780    -0.1660 hc         1 4V8       0.068700
     50 C23          4.7400     0.0510     1.3580 c3         1 4V8       0.143300
@<TRIPOS>BOND
     1     1     2 2   
     2     1    18 1   
     3     1    25 1   
     4     2    19 1   
     5     2    21 1   
     6     3     4 ar  
     7     3    25 ar  
     8     3    29 1   
     9     4    26 ar  
    10     4    30 1   
    11     5     6 ar  
    12     5    26 ar  
    13     5    31 1   
    14     6    25 ar  
    15     6    32 1   
    16     7     8 1   
    17     7    11 2   
    18     7    22 1   
    19     8     9 2   
    20     8    33 1   
    21     9    27 1   
    22     9    34 1   
    23    10    11 1   
    24    10    27 1   
    25    10    28 2   
    26    11    35 1   
    27    12    13 ar  
    28    12    17 ar  
    29    12    50 1   
    30    13    14 ar  
    31    13    38 1   
    32    14    15 ar  
    33    14    39 1   
    34    15    16 ar  
    35    15    40 1   
    36    16    17 ar  
    37    16    41 1   
    38    17    42 1   
    39    18    20 1   
    40    18    43 1   
    41    19    20 2   
    42    19    24 1   
    43    21    22 1   
    44    21    44 1   
    45    21    45 1   
    46    22    23 1   
    47    23    24 1   
    48    23    46 1   
    49    23    47 1   
    50    24    48 1   
    51    24    49 1   
    52    27    50 1   
    53    36    50 1   
    54    37    50 1   
@<TRIPOS>SUBSTRUCTURE
     1 4V8         1 TEMP              0 ****  ****    0 ROOT
