@<TRIPOS>MOLECULE
4V8
   50    54     1     0     0
SMALL
bcc


@<TRIPOS>ATOM
      1 C2          -4.0760     0.4790    -0.5480 cc         1 4V8      -0.042300
      2 C3          -2.8630     1.0600    -0.2190 cd         1 4V8      -0.255600
      3 C11         -5.9730    -1.1150    -0.2990 ca         1 4V8      -0.240300
      4 C12         -6.4170    -2.4120    -0.1050 ca         1 4V8       0.406200
      5 C14         -4.3030    -3.2170     0.0030 ca         1 4V8       0.406200
      6 C15         -3.7540    -1.9610    -0.1930 ca         1 4V8      -0.240300
      7 C16          0.6590     1.1560     0.8140 cc         1 4V8       0.283000
      8 C17          1.7170     2.1210     0.8160 cc         1 4V8      -0.288000
      9 C18          2.9880     1.7050     1.0120 cd         1 4V8       0.042600
     10 C20          2.3590    -0.5930     1.2330 c          1 4V8       0.718700
     11 C21          1.0150    -0.1650     1.0290 cd         1 4V8      -0.397200
     12 C24          5.3200    -0.5240     0.1060 ca         1 4V8      -0.112300
     13 C25          5.6260     0.3220    -0.9570 ca         1 4V8      -0.102000
     14 C26          6.1680    -0.1820    -2.1310 ca         1 4V8      -0.133000
     15 C27          6.4150    -1.5440    -2.2530 ca         1 4V8      -0.118000
     16 C28          6.1190    -2.3940    -1.1960 ca         1 4V8      -0.133000
     17 C29          5.5710    -1.8860    -0.0250 ca         1 4V8      -0.102000
     18 N1          -4.8080     1.4730    -1.1000 na         1 4V8       0.008400
     19 C4          -2.9930     2.3990    -0.6090 cd         1 4V8       0.319600
     20 N5          -4.1750     2.6340    -1.1500 nc         1 4V8      -0.499800
     21 C6          -1.6390     0.4980     0.4240 c6         1 4V8       0.303100
     22 N7          -0.6290     1.5310     0.5750 nh         1 4V8      -0.679400
     23 C8          -1.1130     2.8810     0.8320 c6         1 4V8       0.226800
     24 C9          -1.9270     3.4020    -0.3460 c6         1 4V8      -0.115700
     25 C10         -4.6010    -0.8650    -0.3500 ca         1 4V8       0.021000
     26 N13         -5.6090    -3.4540     0.0470 nb         1 4V8      -0.656000
     27 N19          3.3260     0.4110     1.2150 n          1 4V8      -0.344000
     28 O22          2.6980    -1.7610     1.4350 o          1 4V8      -0.657500
     29 H1          -6.7030    -0.3210    -0.3860 ha         1 4V8       0.142500
     30 H2          -7.4820    -2.6120    -0.0640 h4         1 4V8       0.024100
     31 H3          -3.6480    -4.0730     0.1250 h4         1 4V8       0.024100
     32 H4          -2.6790    -1.8620    -0.2390 ha         1 4V8       0.142500
     33 H5           1.5550     3.1710     0.6340 ha         1 4V8       0.145000
     34 H6           3.8040     2.4130     1.0080 h4         1 4V8       0.143000
     35 H7           0.2780    -0.9520     1.0830 ha         1 4V8       0.152000
     36 H8           4.8160    -0.6750     2.1900 h1         1 4V8       0.064700
     37 H9           5.2680     0.9380     1.6720 h1         1 4V8       0.064700
     38 H10          5.4490     1.3890    -0.8690 ha         1 4V8       0.134000
     39 H11          6.4030     0.4890    -2.9470 ha         1 4V8       0.131000
     40 H12          6.8410    -1.9390    -3.1660 ha         1 4V8       0.130000
     41 H13          6.3120    -3.4550    -1.2840 ha         1 4V8       0.131000
     42 H14          5.3370    -2.5530     0.7940 ha         1 4V8       0.134000
     43 H15         -5.7280     1.3980    -1.5070 hn         1 4V8       0.326700
     44 H16         -1.8850     0.0240     1.3860 h1         1 4V8       0.055700
     45 H17         -1.2200    -0.2840    -0.2130 h1         1 4V8       0.055700
     46 H18         -1.7370     2.8770     1.7340 h1         1 4V8       0.051200
     47 H19         -0.2820     3.5460     1.0360 h1         1 4V8       0.051200
     48 H20         -1.2770     3.5320    -1.2150 hc         1 4V8       0.068700
     49 H21         -2.3510     4.3780    -0.1050 hc         1 4V8       0.068700
     50 C23          4.7290     0.0390     1.3730 c3         1 4V8       0.143300
@<TRIPOS>BOND
     1     1     2 2   
     2     1    18 1   
     3     1    25 1   
     4     2    19 1   
     5     2    21 1   
     6     3     4 ar  
     7     3    25 ar  
     8     3    29 1   
     9     4    26 ar  
    10     4    30 1   
    11     5     6 ar  
    12     5    26 ar  
    13     5    31 1   
    14     6    25 ar  
    15     6    32 1   
    16     7     8 1   
    17     7    11 2   
    18     7    22 1   
    19     8     9 2   
    20     8    33 1   
    21     9    27 1   
    22     9    34 1   
    23    10    11 1   
    24    10    27 1   
    25    10    28 2   
    26    11    35 1   
    27    12    13 ar  
    28    12    17 ar  
    29    12    50 1   
    30    13    14 ar  
    31    13    38 1   
    32    14    15 ar  
    33    14    39 1   
    34    15    16 ar  
    35    15    40 1   
    36    16    17 ar  
    37    16    41 1   
    38    17    42 1   
    39    18    20 1   
    40    18    43 1   
    41    19    20 2   
    42    19    24 1   
    43    21    22 1   
    44    21    44 1   
    45    21    45 1   
    46    22    23 1   
    47    23    24 1   
    48    23    46 1   
    49    23    47 1   
    50    24    48 1   
    51    24    49 1   
    52    27    50 1   
    53    36    50 1   
    54    37    50 1   
@<TRIPOS>SUBSTRUCTURE
     1 4V8         1 TEMP              0 ****  ****    0 ROOT
