@<TRIPOS>MOLECULE
4V9
   37    40     1     0     0
SMALL
abcg2


@<TRIPOS>ATOM
      1 C1          -3.1410    -0.5850    -0.0930 ca         1 4V9       0.630900
      2 C2          -3.5980    -2.8050     0.2980 ca         1 4V9       0.388900
      3 C3          -4.9600    -2.6030     0.3870 ca         1 4V9      -0.226000
      4 C11          1.4390     1.2960     0.1760 cc         1 4V9      -0.083000
      5 C12          2.5400     0.3420     0.0700 ca         1 4V9      -0.038000
      6 C13          3.8180     0.7620    -0.3080 ca         1 4V9      -0.072000
      7 C14          4.8670    -0.1370    -0.4110 ca         1 4V9      -0.149500
      8 C15          4.6280    -1.4700    -0.1400 ca         1 4V9       0.179000
      9 C16          3.3780    -1.9260     0.2310 ca         1 4V9      -0.149500
     10 C17          2.3410    -1.0140     0.3370 ca         1 4V9      -0.072000
     11 F            5.6370    -2.3470    -0.2440 f          1 4V9      -0.174000
     12 C7           0.0690     1.1610     0.0220 cd         1 4V9      -0.198300
     13 C6          -0.7820    -0.0280    -0.2890 c6         1 4V9       0.315100
     14 N4           1.6410     2.6090     0.4250 na         1 4V9       0.001800
     15 N3           0.5270     3.3290     0.4360 nc         1 4V9      -0.505800
     16 C8          -0.4350     2.4600     0.1860 cd         1 4V9       0.255300
     17 C9          -1.8780     2.7770     0.0140 c6         1 4V9      -0.116700
     18 C10         -2.4760     1.6760    -0.8560 c6         1 4V9       0.230800
     19 N1          -2.1810     0.3660    -0.3050 nh         1 4V9      -0.794300
     20 C5          -4.5170    -0.2750    -0.0060 ca         1 4V9      -0.230000
     21 C4          -5.4120    -1.2940     0.2300 ca         1 4V9      -0.035000
     22 N2          -2.7160    -1.8410     0.0600 nb         1 4V9      -0.764000
     23 H1          -3.1850    -3.8010     0.4180 h4         1 4V9       0.012100
     24 H2          -5.6370    -3.4240     0.5730 ha         1 4V9       0.124000
     25 H3           4.0090     1.8000    -0.5460 ha         1 4V9       0.121500
     26 H4           5.8530     0.1970    -0.7070 ha         1 4V9       0.136000
     27 H5           3.2140    -2.9740     0.4420 ha         1 4V9       0.136000
     28 H6           1.3710    -1.3730     0.6510 ha         1 4V9       0.121500
     29 H7          -0.4810    -0.4850    -1.2420 h1         1 4V9       0.061200
     30 H8          -0.6620    -0.8000     0.4690 h1         1 4V9       0.061200
     31 H9           2.5200     3.0570     0.6350 hn         1 4V9       0.373000
     32 H10         -2.3980     2.8110     0.9750 hc         1 4V9       0.065700
     33 H11         -2.0170     3.7490    -0.4630 hc         1 4V9       0.065700
     34 H12         -3.5470     1.8180    -0.9500 h1         1 4V9       0.048700
     35 H13         -2.0650     1.7490    -1.8700 h1         1 4V9       0.048700
     36 H14         -4.8820     0.7370    -0.0970 ha         1 4V9       0.120000
     37 H15         -6.4680    -1.0660     0.3010 ha         1 4V9       0.113000
@<TRIPOS>BOND
     1     1    19 1   
     2     1    20 ar  
     3     1    22 ar  
     4     2     3 ar  
     5     2    22 ar  
     6     2    23 1   
     7     3    21 ar  
     8     3    24 1   
     9     4     5 1   
    10     4    12 2   
    11     4    14 1   
    12     5     6 ar  
    13     5    10 ar  
    14     6     7 ar  
    15     6    25 1   
    16     7     8 ar  
    17     7    26 1   
    18     8     9 ar  
    19     8    11 1   
    20     9    10 ar  
    21     9    27 1   
    22    10    28 1   
    23    12    13 1   
    24    12    16 1   
    25    13    19 1   
    26    13    29 1   
    27    13    30 1   
    28    14    15 1   
    29    14    31 1   
    30    15    16 2   
    31    16    17 1   
    32    17    18 1   
    33    17    32 1   
    34    17    33 1   
    35    18    19 1   
    36    18    34 1   
    37    18    35 1   
    38    20    21 ar  
    39    20    36 1   
    40    21    37 1   
@<TRIPOS>SUBSTRUCTURE
     1 4V9         1 TEMP              0 ****  ****    0 ROOT
