@<TRIPOS>MOLECULE
4V9
   37    40     1     0     0
SMALL
No Charge or Current Charge


@<TRIPOS>ATOM
      1 C1          -3.1020    -0.6300    -0.0960 ca         1 4V9       0.630900
      2 C2          -3.5360    -2.8850    -0.3410 ca         1 4V9       0.388900
      3 C3          -4.8800    -2.7180     0.0260 ca         1 4V9      -0.226000
      4 C11          1.5070     1.4560     0.2710 cc         1 4V9      -0.083000
      5 C12          2.4960     0.3850     0.1500 ca         1 4V9      -0.038000
      6 C13          3.6350     0.5750    -0.6590 ca         1 4V9      -0.072000
      7 C14          4.5980    -0.4430    -0.7830 ca         1 4V9      -0.149500
      8 C15          4.4310    -1.6510    -0.0910 ca         1 4V9       0.179000
      9 C16          3.3100    -1.8460     0.7280 ca         1 4V9      -0.149500
     10 C17          2.3460    -0.8290     0.8520 ca         1 4V9      -0.072000
     11 F            5.3570    -2.6270    -0.2090 f          1 4V9      -0.174000
     12 C7           0.1550     1.3170     0.1320 cd         1 4V9      -0.198300
     13 C6          -0.6810     0.0790    -0.1210 c6         1 4V9       0.315100
     14 N4           1.7130     2.8310     0.3590 na         1 4V9       0.001800
     15 N3           0.5300     3.5610     0.3250 nc         1 4V9      -0.505800
     16 C8          -0.3820     2.6140     0.1810 cd         1 4V9       0.255300
     17 C9          -1.8550     2.8650     0.0240 c6         1 4V9      -0.116700
     18 C10         -2.4810     1.7080    -0.7820 c6         1 4V9       0.230800
     19 N1          -2.1420     0.3920    -0.1680 nh         1 4V9      -0.794300
     20 C5          -4.4300    -0.3770     0.2930 ca         1 4V9      -0.230000
     21 C4          -5.3450    -1.4370     0.3550 ca         1 4V9      -0.035000
     22 N2          -2.6560    -1.8620    -0.4000 nb         1 4V9      -0.764000
     23 H1          -3.1500    -3.8710    -0.5960 h4         1 4V9       0.012100
     24 H2          -5.5450    -3.5760     0.0580 ha         1 4V9       0.124000
     25 H3           3.7690     1.5070    -1.2040 ha         1 4V9       0.121500
     26 H4           5.4720    -0.2960    -1.4140 ha         1 4V9       0.136000
     27 H5           3.1930    -2.7800     1.2720 ha         1 4V9       0.136000
     28 H6           1.4970    -0.9810     1.5130 ha         1 4V9       0.121500
     29 H7          -0.3620    -0.3860    -1.0660 h1         1 4V9       0.061200
     30 H8          -0.4950    -0.6480     0.6810 h1         1 4V9       0.061200
     31 H9           2.6170     3.2930     0.4480 hn         1 4V9       0.373000
     32 H10         -2.3330     2.9330     1.0090 hc         1 4V9       0.065700
     33 H11         -2.0400     3.8180    -0.4890 hc         1 4V9       0.065700
     34 H12         -3.5680     1.8620    -0.8420 h1         1 4V9       0.048700
     35 H13         -2.1010     1.7410    -1.8150 h1         1 4V9       0.048700
     36 H14         -4.7450     0.6260     0.5600 ha         1 4V9       0.120000
     37 H15         -6.3790    -1.2730     0.6530 ha         1 4V9       0.113000
@<TRIPOS>BOND
     1     1    19 1   
     2     1    20 ar  
     3     1    22 ar  
     4     2     3 ar  
     5     2    22 ar  
     6     2    23 1   
     7     3    21 ar  
     8     3    24 1   
     9     4     5 1   
    10     4    12 2   
    11     4    14 1   
    12     5     6 ar  
    13     5    10 ar  
    14     6     7 ar  
    15     6    25 1   
    16     7     8 ar  
    17     7    26 1   
    18     8     9 ar  
    19     8    11 1   
    20     9    10 ar  
    21     9    27 1   
    22    10    28 1   
    23    12    13 1   
    24    12    16 1   
    25    13    19 1   
    26    13    29 1   
    27    13    30 1   
    28    14    15 1   
    29    14    31 1   
    30    15    16 2   
    31    16    17 1   
    32    17    18 1   
    33    17    32 1   
    34    17    33 1   
    35    18    19 1   
    36    18    34 1   
    37    18    35 1   
    38    20    21 ar  
    39    20    36 1   
    40    21    37 1   
@<TRIPOS>SUBSTRUCTURE
     1 4V9         1 TEMP              0 ****  ****    0 ROOT
