@<TRIPOS>MOLECULE
4VA
   48    49     1     0     0
SMALL
bcc


@<TRIPOS>ATOM
      1 F           -0.5470     1.5280    -1.0310 f          1 4VA      -0.116900
      2 CL          -2.2340    -2.8210     0.7710 cl         1 4VA      -0.020400
      3 C1           2.7370     3.6230     1.9230 c3         1 4VA      -0.112100
      4 C2           1.8770     2.3670     1.9450 c3         1 4VA      -0.104400
      5 C3           1.7690     1.6680     0.5910 c3         1 4VA       0.215800
      6 N5           3.1240     1.1850     0.1750 ny         1 4VA      -0.799000
      7 C8           3.2370     0.4630    -1.1350 c3         1 4VA       0.159500
      8 C10          2.9460     1.3850    -2.3000 c3         1 4VA      -0.128100
      9 C11          4.6360    -0.1400    -1.2250 c3         1 4VA      -0.207400
     10 C12          4.9540    -1.1010    -0.0960 c          1 4VA       0.675100
     11 O13          4.4560    -0.9560     1.0240 o          1 4VA      -0.656100
     12 N14          5.8070    -2.0750    -0.3830 nt         1 4VA      -0.620000
     13 C15          0.7950     0.5190     0.6220 ca         1 4VA      -0.207300
     14 C16          0.9580    -0.5550     1.4940 ca         1 4VA      -0.085000
     15 C17          0.0420    -1.5890     1.5490 ca         1 4VA      -0.121000
     16 C18         -1.0720    -1.5580     0.7240 ca         1 4VA       0.053400
     17 C20         -1.2640    -0.5070    -0.1620 ca         1 4VA       0.081100
     18 O21         -2.3090    -0.4830    -1.0210 os         1 4VA      -0.232200
     19 C22         -3.5190     0.0020    -0.5900 ca         1 4VA       0.111100
     20 C23         -4.5860    -0.1790    -1.4600 ca         1 4VA      -0.166000
     21 C24         -5.8400     0.2940    -1.1050 ca         1 4VA      -0.091500
     22 C25         -6.0340     0.9400     0.1100 ca         1 4VA      -0.139000
     23 C26         -4.9580     1.1110     0.9680 ca         1 4VA      -0.091500
     24 C27         -3.6930     0.6440     0.6270 ca         1 4VA      -0.166000
     25 C28         -0.3270     0.5170    -0.1880 ca         1 4VA       0.158900
     26 H3           1.4680     2.4040    -0.1520 hx         1 4VA       0.104700
     27 HN5          3.7630     1.9840     0.1650 hn         1 4VA       0.461300
     28 HN5A         3.5200     0.5190     0.8730 hn         1 4VA       0.461300
     29 H8           2.5030    -0.3430    -1.1000 hx         1 4VA       0.114700
     30 H1           3.7940     3.4160     1.7460 hc         1 4VA       0.052367
     31 H1A          2.3960     4.3250     1.1600 hc         1 4VA       0.052367
     32 H1B          2.6790     4.1300     2.8850 hc         1 4VA       0.052367
     33 H2A          0.8600     2.6290     2.2410 hc         1 4VA       0.083700
     34 H10          3.6460     2.2210    -2.3300 hc         1 4VA       0.074700
     35 H10A         3.0490     0.8260    -3.2290 hc         1 4VA       0.074700
     36 H10B         1.9320     1.7800    -2.2760 hc         1 4VA       0.074700
     37 H11          4.7250    -0.6390    -2.1900 hc         1 4VA       0.097700
     38 H11A         5.3910     0.6550    -1.2210 hc         1 4VA       0.097700
     39 HN14         6.2070    -2.1810    -1.3000 hn         1 4VA       0.342500
     40 HN1A         6.1090    -2.7180     0.3320 hn         1 4VA       0.342500
     41 H16          1.8150    -0.5950     2.1550 ha         1 4VA       0.152000
     42 H17          0.1880    -2.4110     2.2350 ha         1 4VA       0.174000
     43 H23         -4.4340    -0.6870    -2.4040 ha         1 4VA       0.141000
     44 H24         -6.6710     0.1500    -1.7830 ha         1 4VA       0.142000
     45 H25         -7.0140     1.3060     0.3840 ha         1 4VA       0.146000
     46 H26         -5.0940     1.6130     1.9160 ha         1 4VA       0.142000
     47 H27         -2.8710     0.7890     1.3160 ha         1 4VA       0.141000
     48 H2           2.2470     1.6640     2.6960 hc         1 4VA       0.083700
@<TRIPOS>BOND
     1     1    25 1   
     2     2    16 1   
     3     3     4 1   
     4     3    30 1   
     5     3    31 1   
     6     3    32 1   
     7     4     5 1   
     8     4    33 1   
     9     4    48 1   
    10     5     6 1   
    11     5    13 1   
    12     5    26 1   
    13     6     7 1   
    14     6    27 1   
    15     6    28 1   
    16     7     8 1   
    17     7     9 1   
    18     7    29 1   
    19     8    34 1   
    20     8    35 1   
    21     8    36 1   
    22     9    10 1   
    23     9    37 1   
    24     9    38 1   
    25    10    11 2   
    26    10    12 1   
    27    12    39 1   
    28    12    40 1   
    29    13    14 ar  
    30    13    25 ar  
    31    14    15 ar  
    32    14    41 1   
    33    15    16 ar  
    34    15    42 1   
    35    16    17 ar  
    36    17    18 1   
    37    17    25 ar  
    38    18    19 1   
    39    19    20 ar  
    40    19    24 ar  
    41    20    21 ar  
    42    20    43 1   
    43    21    22 ar  
    44    21    44 1   
    45    22    23 ar  
    46    22    45 1   
    47    23    24 ar  
    48    23    46 1   
    49    24    47 1   
@<TRIPOS>SUBSTRUCTURE
     1 4VA         1 TEMP              0 ****  ****    0 ROOT
