@<TRIPOS>MOLECULE
4VA
   48    49     1     0     0
SMALL
No Charge or Current Charge


@<TRIPOS>ATOM
      1 F           -0.6870     1.1490    -0.7680 f          1 4VA      -0.152000
      2 Cl          -1.5690    -3.4750     1.3300 cl         1 4VA      -0.112000
      3 C1           2.4800     3.8310     1.8800 c3         1 4VA      -0.112100
      4 C2           1.8080     2.4510     2.0450 c3         1 4VA      -0.104400
      5 C3           1.6620     1.6720     0.7230 c3         1 4VA       0.187600
      6 N5           3.0110     1.2940     0.1660 ny         1 4VA      -0.853000
      7 C8           3.0510     0.6340    -1.1930 c3         1 4VA       0.131300
      8 C10          2.7610     1.6640    -2.2960 c3         1 4VA      -0.128100
      9 C11          4.4170    -0.0490    -1.3730 c3         1 4VA      -0.207400
     10 C12          4.6550    -1.1070    -0.3010 c          1 4VA       0.608100
     11 O13          4.6750    -0.8320     0.8880 o          1 4VA      -0.656100
     12 N14          4.8700    -2.3660    -0.7200 nt         1 4VA      -0.553000
     13 C15          0.8530     0.3970     0.8940 ca         1 4VA      -0.207300
     14 C16          1.2590    -0.6100     1.7960 ca         1 4VA      -0.067000
     15 C17          0.5110    -1.7930     1.9200 ca         1 4VA      -0.103000
     16 C18         -0.6480    -1.9820     1.1500 ca         1 4VA       0.145000
     17 C20         -1.0690    -0.9840     0.2510 ca         1 4VA       0.081100
     18 O21         -2.2070    -1.1830    -0.5050 os         1 4VA      -0.232200
     19 C22         -3.2950    -0.3400    -0.4470 ca         1 4VA       0.111100
     20 C23         -4.1600    -0.2800    -1.5530 ca         1 4VA      -0.148000
     21 C24         -5.2840     0.5640    -1.5260 ca         1 4VA      -0.073500
     22 C25         -5.5470     1.3450    -0.3870 ca         1 4VA      -0.121000
     23 C26         -4.6900     1.2810     0.7250 ca         1 4VA      -0.073500
     24 C27         -3.5650     0.4370     0.6980 ca         1 4VA      -0.148000
     25 C28         -0.3100     0.1990     0.1200 ca         1 4VA       0.194000
     26 H3           1.1670     2.3300     0.0010 hx         1 4VA       0.104700
     27 HN5          3.6340     2.1250     0.1650 hn         1 4VA       0.516500
     28 HN5A         3.4880     0.6500     0.8420 hn         1 4VA       0.516500
     29 H8           2.2730    -0.1380    -1.2250 hx         1 4VA       0.114700
     30 H1           3.5240     3.7310     1.5620 hc         1 4VA       0.052367
     31 H1A          1.9460     4.4370     1.1370 hc         1 4VA       0.052367
     32 H1B          2.4700     4.3750     2.8320 hc         1 4VA       0.052367
     33 H2A          0.8070     2.6000     2.4690 hc         1 4VA       0.083700
     34 H10          3.5060     2.4680    -2.2910 hc         1 4VA       0.074700
     35 H10A         2.7780     1.1860    -3.2830 hc         1 4VA       0.074700
     36 H10B         1.7700     2.1110    -2.1590 hc         1 4VA       0.074700
     37 H11          4.4790    -0.5030    -2.3680 hc         1 4VA       0.097700
     38 H11A         5.2090     0.7040    -1.2910 hc         1 4VA       0.097700
     39 HN14         4.8650    -2.5860    -1.7050 hn         1 4VA       0.342500
     40 HN1A         5.0430    -3.0870    -0.0370 hn         1 4VA       0.342500
     41 H16          2.1570    -0.4870     2.3980 ha         1 4VA       0.134000
     42 H17          0.8300    -2.5670     2.6140 ha         1 4VA       0.156000
     43 H23         -3.9560    -0.8860    -2.4320 ha         1 4VA       0.123000
     44 H24         -5.9500     0.6110    -2.3850 ha         1 4VA       0.124000
     45 H25         -6.4170     1.9980    -0.3660 ha         1 4VA       0.128000
     46 H26         -4.8980     1.8830     1.6080 ha         1 4VA       0.124000
     47 H27         -2.9160     0.3890     1.5690 ha         1 4VA       0.123000
     48 H2           2.3720     1.8590     2.7750 hc         1 4VA       0.083700
@<TRIPOS>BOND
     1     1    25 1   
     2     2    16 1   
     3     3     4 1   
     4     3    30 1   
     5     3    31 1   
     6     3    32 1   
     7     4     5 1   
     8     4    33 1   
     9     4    48 1   
    10     5     6 1   
    11     5    13 1   
    12     5    26 1   
    13     6     7 1   
    14     6    27 1   
    15     6    28 1   
    16     7     8 1   
    17     7     9 1   
    18     7    29 1   
    19     8    34 1   
    20     8    35 1   
    21     8    36 1   
    22     9    10 1   
    23     9    37 1   
    24     9    38 1   
    25    10    11 2   
    26    10    12 1   
    27    12    39 1   
    28    12    40 1   
    29    13    14 ar  
    30    13    25 ar  
    31    14    15 ar  
    32    14    41 1   
    33    15    16 ar  
    34    15    42 1   
    35    16    17 ar  
    36    17    18 1   
    37    17    25 ar  
    38    18    19 1   
    39    19    20 ar  
    40    19    24 ar  
    41    20    21 ar  
    42    20    43 1   
    43    21    22 ar  
    44    21    44 1   
    45    22    23 ar  
    46    22    45 1   
    47    23    24 ar  
    48    23    46 1   
    49    24    47 1   
@<TRIPOS>SUBSTRUCTURE
     1 4VA         1 TEMP              0 ****  ****    0 ROOT
