@<TRIPOS>MOLECULE
4VB
   37    40     1     0     0
SMALL
abcg2


@<TRIPOS>ATOM
      1 C2          -2.2380     0.8570    -0.1640 cc         1 4VB      -0.092000
      2 C3          -0.8780     1.0610    -0.0080 cd         1 4VB      -0.192300
      3 C11         -2.5510    -1.6100    -0.2470 ca         1 4VB      -0.156500
      4 C12         -3.3850    -2.7070    -0.1080 ca         1 4VB       0.340900
      5 C14         -5.1680    -1.4050     0.3990 ca         1 4VB       0.340900
      6 C15         -4.4220    -0.2440     0.2930 ca         1 4VB      -0.156500
      7 C16          2.6600     0.1400     0.2230 cc         1 4VB       0.284000
      8 C17          3.9080     0.8330     0.0690 cc         1 4VB      -0.336000
      9 C18          5.0380     0.1140    -0.1060 cd         1 4VB      -0.009400
     10 C20          3.8850    -1.9980     0.0130 c          1 4VB       0.573200
     11 C21          2.6880    -1.2460     0.1970 cd         1 4VB      -0.448200
     12 N1          -2.7550     2.0790    -0.4250 na         1 4VB       0.008800
     13 C4          -0.7040     2.4410    -0.1850 cd         1 4VB       0.254300
     14 N5          -1.8490     3.0440    -0.4460 nc         1 4VB      -0.499800
     15 C6           0.2340     0.1190     0.3160 c6         1 4VB       0.304100
     16 N7           1.4980     0.8360     0.3540 nh         1 4VB      -0.680400
     17 C8           1.4470     2.1900     0.8890 c6         1 4VB       0.225800
     18 C9           0.6180     3.1000    -0.0080 c6         1 4VB      -0.115700
     19 C10         -3.0710    -0.3330    -0.0430 ca         1 4VB       0.020000
     20 N13         -4.6720    -2.6220     0.2070 nb         1 4VB      -0.655000
     21 N19          5.0320    -1.2350    -0.1320 ns         1 4VB      -0.374100
     22 O22          3.9620    -3.2290    -0.0110 o          1 4VB      -0.581000
     23 H2          -2.9880    -3.7040    -0.2650 h4         1 4VB       0.024100
     24 H3          -6.2190    -1.3440     0.6590 h4         1 4VB       0.024100
     25 H4          -4.8970     0.7070     0.4930 ha         1 4VB       0.125000
     26 H5           3.9810     1.9080     0.0400 ha         1 4VB       0.196000
     27 H6           5.9990     0.5870    -0.2460 h4         1 4VB       0.195000
     28 H7           1.7950    -1.8330     0.3470 ha         1 4VB       0.202000
     29 H8          -3.7150     2.2980    -0.6420 hn         1 4VB       0.377000
     30 H9           0.0380    -0.4060     1.2620 h1         1 4VB       0.056200
     31 H10          0.3100    -0.6450    -0.4600 h1         1 4VB       0.056200
     32 H11          1.0020     2.1620     1.8900 h1         1 4VB       0.051200
     33 H12          2.4480     2.5870     1.0120 h1         1 4VB       0.051200
     34 H13          1.1250     3.2430    -0.9660 hc         1 4VB       0.068200
     35 H14          0.5110     4.0830     0.4540 hc         1 4VB       0.068200
     36 H15          5.9040    -1.7270    -0.2670 hn         1 4VB       0.325500
     37 H1          -1.5210    -1.7680    -0.5310 ha         1 4VB       0.125000
@<TRIPOS>BOND
     1     1     2 2   
     2     1    12 1   
     3     1    19 1   
     4     2    13 1   
     5     2    15 1   
     6     3     4 ar  
     7     3    19 ar  
     8     3    37 1   
     9     4    20 ar  
    10     4    23 1   
    11     5     6 ar  
    12     5    20 ar  
    13     5    24 1   
    14     6    19 ar  
    15     6    25 1   
    16     7     8 1   
    17     7    11 2   
    18     7    16 1   
    19     8     9 2   
    20     8    26 1   
    21     9    21 1   
    22     9    27 1   
    23    10    11 1   
    24    10    21 1   
    25    10    22 2   
    26    11    28 1   
    27    12    14 1   
    28    12    29 1   
    29    13    14 2   
    30    13    18 1   
    31    15    16 1   
    32    15    30 1   
    33    15    31 1   
    34    16    17 1   
    35    17    18 1   
    36    17    32 1   
    37    17    33 1   
    38    18    34 1   
    39    18    35 1   
    40    21    36 1   
@<TRIPOS>SUBSTRUCTURE
     1 4VB         1 TEMP              0 ****  ****    0 ROOT
