@<TRIPOS>MOLECULE
4VB
   37    40     1     0     0
SMALL
No Charge or Current Charge


@<TRIPOS>ATOM
      1 C2          -2.2690     0.9400    -0.3160 cc         1 4VB      -0.092000
      2 C3          -0.9430     1.1210    -0.0370 cd         1 4VB      -0.192300
      3 C11         -2.5330    -1.5370    -0.6460 ca         1 4VB      -0.156500
      4 C12         -3.3040    -2.6990    -0.4760 ca         1 4VB       0.340900
      5 C14         -4.9840    -1.5180     0.5900 ca         1 4VB       0.340900
      6 C15         -4.2790    -0.3100     0.4580 ca         1 4VB      -0.156500
      7 C16          2.6130     0.0870     0.3350 cc         1 4VB       0.284000
      8 C17          3.7570     0.7640    -0.2000 cc         1 4VB      -0.336000
      9 C18          4.9300     0.0840    -0.4450 cd         1 4VB      -0.009400
     10 C20          3.9460    -2.0150     0.3400 c          1 4VB       0.573200
     11 C21          2.7170    -1.2570     0.5840 cd         1 4VB      -0.448200
     12 N1          -2.7520     2.2180    -0.5880 na         1 4VB       0.008800
     13 C4          -0.6930     2.4970    -0.1920 cd         1 4VB       0.254300
     14 N5          -1.7630     3.1950    -0.5310 nc         1 4VB      -0.499800
     15 C6           0.1050     0.1350     0.4370 c6         1 4VB       0.304100
     16 N7           1.4450     0.7780     0.5710 nh         1 4VB      -0.680400
     17 C8           1.4220     2.1850     1.0640 c6         1 4VB       0.225800
     18 C9           0.6630     3.0910     0.0710 c6         1 4VB      -0.115700
     19 C10         -3.0170    -0.3080    -0.1620 ca         1 4VB       0.020000
     20 N13         -4.5110    -2.7010     0.1340 nb         1 4VB      -0.655000
     21 N19          4.9780    -1.2670    -0.1650 ns         1 4VB      -0.374100
     22 O22          4.0540    -3.2090     0.5630 o          1 4VB      -0.581000
     23 H2          -2.9470    -3.6590    -0.8480 h4         1 4VB       0.024100
     24 H3          -5.9590    -1.5400     1.0750 h4         1 4VB       0.024100
     25 H4          -4.7110     0.6060     0.8490 ha         1 4VB       0.125000
     26 H5           3.6900     1.8210    -0.4330 ha         1 4VB       0.196000
     27 H6           5.8420     0.5170    -0.8530 h4         1 4VB       0.195000
     28 H7           1.9040    -1.8390     0.9950 ha         1 4VB       0.202000
     29 H8          -3.7160     2.4550    -0.8140 hn         1 4VB       0.377000
     30 H9          -0.2020    -0.2940     1.4020 h1         1 4VB       0.056200
     31 H10          0.1740    -0.6930    -0.2800 h1         1 4VB       0.056200
     32 H11          0.9140     2.2220     2.0390 h1         1 4VB       0.051200
     33 H12          2.4350     2.5780     1.2270 h1         1 4VB       0.051200
     34 H13          1.2280     3.1720    -0.8650 hc         1 4VB       0.068200
     35 H14          0.5760     4.1050     0.4840 hc         1 4VB       0.068200
     36 H15          5.8280    -1.7910    -0.3350 hn         1 4VB       0.325500
     37 H1          -1.5880    -1.6010    -1.1730 ha         1 4VB       0.125000
@<TRIPOS>BOND
     1     1     2 2   
     2     1    12 1   
     3     1    19 1   
     4     2    13 1   
     5     2    15 1   
     6     3     4 ar  
     7     3    19 ar  
     8     3    37 1   
     9     4    20 ar  
    10     4    23 1   
    11     5     6 ar  
    12     5    20 ar  
    13     5    24 1   
    14     6    19 ar  
    15     6    25 1   
    16     7     8 1   
    17     7    11 2   
    18     7    16 1   
    19     8     9 2   
    20     8    26 1   
    21     9    21 1   
    22     9    27 1   
    23    10    11 1   
    24    10    21 1   
    25    10    22 2   
    26    11    28 1   
    27    12    14 1   
    28    12    29 1   
    29    13    14 2   
    30    13    18 1   
    31    15    16 1   
    32    15    30 1   
    33    15    31 1   
    34    16    17 1   
    35    17    18 1   
    36    17    32 1   
    37    17    33 1   
    38    18    34 1   
    39    18    35 1   
    40    21    36 1   
@<TRIPOS>SUBSTRUCTURE
     1 4VB         1 TEMP              0 ****  ****    0 ROOT
