@<TRIPOS>MOLECULE
4VC
   30    31     1     0     0
SMALL
No Charge or Current Charge


@<TRIPOS>ATOM
      1 C2           3.1870    -0.4240     0.8780 ca         1 4VC       0.072000
      2 C3           4.5090    -0.5380     0.4160 ca         1 4VC      -0.083000
      3 C5           4.0020     0.9810    -1.4100 ca         1 4VC      -0.088000
      4 C6           2.6780     1.0970    -0.9510 ca         1 4VC      -0.105000
      5 C7           2.2540     0.3950     0.2010 ca         1 4VC      -0.005000
      6 C12         -2.6090     1.5130     0.9210 c3         1 4VC       0.167300
      7 C13         -3.5290     0.5490     0.1940 ca         1 4VC      -0.174300
      8 C14         -3.4370     0.3750    -1.1990 ca         1 4VC      -0.053000
      9 C15         -4.3170    -0.5290    -1.8150 ca         1 4VC      -0.166000
     10 C16         -5.2500    -1.2230    -1.0280 ca         1 4VC       0.339900
     11 Cl1          2.7140    -1.3250     2.3200 cl         1 4VC      -0.214000
     12 C4           4.9180     0.1650    -0.7290 ca         1 4VC      -0.121000
     13 N8           0.9280     0.4700     0.7170 ns         1 4VC      -0.171000
     14 C9          -0.1970     1.1640     0.3050 c          1 4VC       0.662100
     15 O10         -0.2540     1.9070    -0.6640 o          1 4VC      -0.624100
     16 N11         -1.2810     0.9300     1.1170 ns         1 4VC      -0.521900
     17 N17         -5.3460    -1.0610     0.3120 nb         1 4VC      -0.667000
     18 C18         -4.4970    -0.1890     0.9040 ca         1 4VC       0.340900
     19 H19          5.2160    -1.1710     0.9460 ha         1 4VC       0.129000
     20 H21          4.3180     1.5260    -2.2980 ha         1 4VC       0.120000
     21 H22          2.0000     1.7380    -1.5050 ha         1 4VC       0.139000
     22 H25         -2.5280     2.4500     0.3530 h1         1 4VC       0.068200
     23 H26         -3.0300     1.7620     1.9040 h1         1 4VC       0.068200
     24 H27         -2.7040     0.9250    -1.7870 ha         1 4VC       0.136000
     25 H28         -4.2810    -0.6950    -2.8880 ha         1 4VC       0.127000
     26 H29         -5.9430    -1.9300    -1.4830 h4         1 4VC       0.020100
     27 H20          5.9420     0.0770    -1.0860 ha         1 4VC       0.120000
     28 H23          0.7860    -0.0960     1.5420 hn         1 4VC       0.156000
     29 H24         -1.1450     0.3000     1.8980 hn         1 4VC       0.313500
     30 H30         -4.5970    -0.0810     1.9840 h4         1 4VC       0.014100
@<TRIPOS>BOND
     1     1     2 ar  
     2     1     5 ar  
     3     1    11 1   
     4     2    12 ar  
     5     2    19 1   
     6     3     4 ar  
     7     3    12 ar  
     8     3    20 1   
     9     4     5 ar  
    10     4    21 1   
    11     5    13 1   
    12     6     7 1   
    13     6    16 1   
    14     6    22 1   
    15     6    23 1   
    16     7     8 ar  
    17     7    18 ar  
    18     8     9 ar  
    19     8    24 1   
    20     9    10 ar  
    21     9    25 1   
    22    10    17 ar  
    23    10    26 1   
    24    12    27 1   
    25    13    14 1   
    26    13    28 1   
    27    14    15 2   
    28    14    16 1   
    29    16    29 1   
    30    17    18 ar  
    31    18    30 1   
@<TRIPOS>SUBSTRUCTURE
     1 4VC         1 TEMP              0 ****  ****    0 ROOT
