@<TRIPOS>MOLECULE
4VC
   30    31     1     0     0
SMALL
abcg2


@<TRIPOS>ATOM
      1 C2           2.9280    -0.7240     0.3800 ca         1 4VC       0.072000
      2 C3           4.1960    -0.8410    -0.1680 ca         1 4VC      -0.083000
      3 C5           4.0500     1.4270    -0.9270 ca         1 4VC      -0.088000
      4 C6           2.7930     1.5460    -0.3580 ca         1 4VC      -0.105000
      5 C7           2.2000     0.4650     0.2970 ca         1 4VC      -0.005000
      6 C12         -2.5370     1.6350     0.6360 c3         1 4VC       0.167300
      7 C13         -3.4590     0.5700     0.1040 ca         1 4VC      -0.174300
      8 C14         -3.1330    -0.1940    -1.0130 ca         1 4VC      -0.053000
      9 C15         -4.0230    -1.1580    -1.4540 ca         1 4VC      -0.166000
     10 C16         -5.2150    -1.3280    -0.7620 ca         1 4VC       0.339900
     11 CL1          2.2360    -2.0950     1.1870 cl         1 4VC      -0.214000
     12 C4           4.7570     0.2360    -0.8340 ca         1 4VC      -0.121000
     13 N8           0.9460     0.5650     0.8960 ns         1 4VC      -0.171000
     14 C9          -0.1470     1.1620     0.3090 c          1 4VC       0.662100
     15 O10         -0.1020     1.6910    -0.7910 o          1 4VC      -0.624100
     16 N11         -1.2620     1.1180     1.0740 ns         1 4VC      -0.521900
     17 N17         -5.5410    -0.6110     0.3050 nb         1 4VC      -0.667000
     18 C18         -4.6780     0.3100     0.7190 ca         1 4VC       0.340900
     19 H19          4.7350    -1.7750    -0.0830 ha         1 4VC       0.129000
     20 H21          4.4840     2.2800    -1.4330 ha         1 4VC       0.120000
     21 H22          2.2700     2.4890    -0.4090 ha         1 4VC       0.139000
     22 H25         -2.3600     2.3910    -0.1270 h1         1 4VC       0.068200
     23 H26         -3.0100     2.1420     1.4770 h1         1 4VC       0.068200
     24 H27         -2.1980    -0.0330    -1.5350 ha         1 4VC       0.136000
     25 H28         -3.8050    -1.7660    -2.3210 ha         1 4VC       0.127000
     26 H29         -5.9330    -2.0730    -1.0860 h4         1 4VC       0.020100
     27 H20          5.7420     0.1430    -1.2710 ha         1 4VC       0.120000
     28 H23          0.7890    -0.0110     1.7100 hn         1 4VC       0.156000
     29 H24         -1.2490     0.6220     1.9510 hn         1 4VC       0.313500
     30 H30         -4.9680     0.8810     1.5970 h4         1 4VC       0.014100
@<TRIPOS>BOND
     1     1     2 ar  
     2     1     5 ar  
     3     1    11 1   
     4     2    12 ar  
     5     2    19 1   
     6     3     4 ar  
     7     3    12 ar  
     8     3    20 1   
     9     4     5 ar  
    10     4    21 1   
    11     5    13 1   
    12     6     7 1   
    13     6    16 1   
    14     6    22 1   
    15     6    23 1   
    16     7     8 ar  
    17     7    18 ar  
    18     8     9 ar  
    19     8    24 1   
    20     9    10 ar  
    21     9    25 1   
    22    10    17 ar  
    23    10    26 1   
    24    12    27 1   
    25    13    14 1   
    26    13    28 1   
    27    14    15 2   
    28    14    16 1   
    29    16    29 1   
    30    17    18 ar  
    31    18    30 1   
@<TRIPOS>SUBSTRUCTURE
     1 4VC         1 TEMP              0 ****  ****    0 ROOT
