@<TRIPOS>MOLECULE
4VD
   51    54     1     0     0
SMALL
bcc


@<TRIPOS>ATOM
      1 C1           3.5880     3.2770    -0.5850 c3         1 4VD      -0.044800
      2 C2           2.1240     3.2920    -0.2610 ca         1 4VD      -0.093300
      3 C3           1.3940     4.4730    -0.3170 ca         1 4VD      -0.117000
      4 C5          -0.6320     3.3330     0.3140 ca         1 4VD      -0.109300
      5 C6          -2.1100     3.3530     0.6250 c3         1 4VD       0.160300
      6 C8          -3.2560     1.2010     0.3130 c          1 4VD       0.801100
      7 O9          -3.0780     0.8450     1.4680 o          1 4VD      -0.621100
      8 C11         -4.3830    -0.8650    -0.4960 ca         1 4VD       0.123600
      9 C12         -4.8020    -1.5060    -1.6690 ca         1 4VD      -0.212000
     10 C13         -5.3300    -2.7830    -1.6240 ca         1 4VD      -0.072000
     11 C14         -5.4580    -3.4660    -0.4210 ca         1 4VD      -0.204000
     12 C15         -5.0380    -2.8120     0.7180 ca         1 4VD       0.163900
     13 C19          1.4460     2.1200     0.0990 ca         1 4VD       0.053600
     14 C21          1.7720    -0.2840    -0.3050 c          1 4VD       0.727300
     15 C23          2.6980    -1.4110    -0.1310 cc         1 4VD      -0.284300
     16 C24          2.3450    -2.7240     0.0940 cd         1 4VD       0.095600
     17 C26          4.4670    -2.7160     0.1430 cc         1 4VD      -0.012300
     18 C27          5.8390    -3.0220     0.2070 cc         1 4VD      -0.090000
     19 C28          6.7540    -2.0330    -0.0040 cd         1 4VD      -0.118000
     20 C4           0.0320     4.4960    -0.0470 ca         1 4VD      -0.126000
     21 N7          -2.8720     2.4120    -0.1600 ns         1 4VD      -0.586900
     22 N10         -3.8810     0.4230    -0.6320 ns         1 4VD      -0.485100
     23 F16         -5.1510    -3.4410     1.9010 f          1 4VD      -0.144900
     24 C17         -4.5080    -1.5360     0.7220 ca         1 4VD      -0.200000
     25 C18          0.0900     2.1470     0.3960 ca         1 4VD      -0.104000
     26 N20          2.1820     0.9170     0.1810 ns         1 4VD      -0.496100
     27 O22          0.6870    -0.4660    -0.8300 o          1 4VD      -0.568100
     28 N25          3.4160    -3.5120     0.2740 nd         1 4VD      -0.293600
     29 C29          6.3200    -0.7200    -0.3030 cd         1 4VD      -0.155000
     30 C30          4.9960    -0.4290    -0.3580 cc         1 4VD      -0.088300
     31 N31          4.0800    -1.4100    -0.1070 na         1 4VD       0.048700
     32 H34          4.1970     2.9750     0.2710 hc         1 4VD       0.041033
     33 H33          3.8100     2.5880    -1.4030 hc         1 4VD       0.041033
     34 H32          3.9300     4.2650    -0.8870 hc         1 4VD       0.041033
     35 H35          1.8970     5.3900    -0.5970 ha         1 4VD       0.132000
     36 H38         -2.2770     3.1330     1.6790 h1         1 4VD       0.068700
     37 H37         -2.5040     4.3550     0.4470 h1         1 4VD       0.068700
     38 H41         -4.7070    -0.9990    -2.6210 ha         1 4VD       0.129000
     39 H42         -5.6450    -3.2580    -2.5430 ha         1 4VD       0.133000
     40 H43         -5.8680    -4.4660    -0.3740 ha         1 4VD       0.151000
     41 H47          1.3380    -3.1070     0.1570 h4         1 4VD       0.194000
     42 H48          6.1310    -4.0420     0.4170 ha         1 4VD       0.166000
     43 H49          7.8120    -2.2490     0.0400 ha         1 4VD       0.146000
     44 H36         -0.5130     5.4300    -0.1190 ha         1 4VD       0.131000
     45 H39         -2.9650     2.6150    -1.1420 hn         1 4VD       0.310500
     46 H40         -3.9330     0.7930    -1.5690 hn         1 4VD       0.313500
     47 H44         -4.2070    -1.0860     1.6540 ha         1 4VD       0.184000
     48 H45         -0.4040     1.2400     0.7140 ha         1 4VD       0.166000
     49 H46          3.0220     0.9430     0.7400 hn         1 4VD       0.321500
     50 H50          7.0330     0.0660    -0.5020 ha         1 4VD       0.151000
     51 H51          4.6250     0.5470    -0.6260 h4         1 4VD       0.166000
@<TRIPOS>BOND
     1     1     2 1   
     2     1    32 1   
     3     1    33 1   
     4     1    34 1   
     5     2     3 ar  
     6     2    13 ar  
     7     3    20 ar  
     8     3    35 1   
     9     4     5 1   
    10     4    20 ar  
    11     4    25 ar  
    12     5    21 1   
    13     5    36 1   
    14     5    37 1   
    15     6     7 2   
    16     6    21 1   
    17     6    22 1   
    18     8     9 ar  
    19     8    22 1   
    20     8    24 ar  
    21     9    10 ar  
    22     9    38 1   
    23    10    11 ar  
    24    10    39 1   
    25    11    12 ar  
    26    11    40 1   
    27    12    23 1   
    28    12    24 ar  
    29    13    25 ar  
    30    13    26 1   
    31    14    15 1   
    32    14    26 1   
    33    14    27 2   
    34    15    16 2   
    35    15    31 1   
    36    16    28 1   
    37    16    41 1   
    38    17    18 1   
    39    17    28 2   
    40    17    31 1   
    41    18    19 2   
    42    18    42 1   
    43    19    29 1   
    44    19    43 1   
    45    20    44 1   
    46    21    45 1   
    47    22    46 1   
    48    24    47 1   
    49    25    48 1   
    50    26    49 1   
    51    29    30 2   
    52    29    50 1   
    53    30    31 1   
    54    30    51 1   
@<TRIPOS>SUBSTRUCTURE
     1 4VD         1 TEMP              0 ****  ****    0 ROOT
