@<TRIPOS>MOLECULE
4VD
   51    54     1     0     0
SMALL
No Charge or Current Charge


@<TRIPOS>ATOM
      1 C1           3.3780     3.0670    -1.0250 c3         1 4VD      -0.044800
      2 C2           1.9750     3.0310    -0.4250 ca         1 4VD      -0.093300
      3 C3           1.0820     4.0850    -0.7010 ca         1 4VD      -0.099000
      4 C5          -0.6390     3.0190     0.6510 ca         1 4VD      -0.109300
      5 C6          -2.0510     3.0040     1.2170 c3         1 4VD       0.160300
      6 C8          -3.3040     0.9930     0.3790 c          1 4VD       0.667100
      7 O9          -2.8570     0.2560     1.2450 o          1 4VD      -0.621100
      8 C11         -4.7680    -0.6400    -0.9500 ca         1 4VD       0.031000
      9 C12         -5.6490    -0.6780    -2.0470 ca         1 4VD      -0.194000
     10 C13         -6.2740    -1.8780    -2.4310 ca         1 4VD      -0.054000
     11 C14         -6.0180    -3.0570    -1.7150 ca         1 4VD      -0.186000
     12 C15         -5.1410    -3.0290    -0.6220 ca         1 4VD       0.199000
     13 C19          1.5610     1.9620     0.4050 ca         1 4VD      -0.039000
     14 C21          2.4990    -0.0990     1.6180 c          1 4VD       0.660300
     15 C23          3.6200    -1.0610     1.4880 cc         1 4VD      -0.284300
     16 C24          3.9150    -1.9810     2.4810 cd         1 4VD       0.045600
     17 C26          5.4250    -2.3200     0.9750 cc         1 4VD      -0.063000
     18 C27          6.5020    -2.7690     0.1650 cc         1 4VD      -0.072000
     19 C28          6.6510    -2.2210    -1.0850 cd         1 4VD      -0.100000
     20 C4          -0.2150     4.0810    -0.1660 ca         1 4VD      -0.108000
     21 N7          -2.9780     2.3270     0.3090 ns         1 4VD      -0.519900
     22 N10         -4.1760     0.6100    -0.6260 ns         1 4VD      -0.159000
     23 F16         -4.8940    -4.1650     0.0670 f          1 4VD      -0.180000
     24 C17         -4.5170    -1.8330    -0.2370 ca         1 4VD      -0.182000
     25 C18          0.2480     1.9630     0.9290 ca         1 4VD      -0.086000
     26 N20          2.4760     0.9010     0.6590 ns         1 4VD      -0.170000
     27 O22          1.6930    -0.1710     2.5380 o          1 4VD      -0.568100
     28 N25          5.0400    -2.7360     2.1650 nd         1 4VD      -0.293600
     29 C29          5.6680    -1.2710    -1.5470 cd         1 4VD      -0.137000
     30 C30          4.5940    -0.8390    -0.7670 cc         1 4VD      -0.121000
     31 N31          4.6110    -1.3030     0.5600 na         1 4VD       0.150100
     32 H34          4.1460     2.9610    -0.2500 hc         1 4VD       0.041033
     33 H33          3.5160     2.2590    -1.7530 hc         1 4VD       0.041033
     34 H32          3.5740     4.0120    -1.5460 hc         1 4VD       0.041033
     35 H35          1.3920     4.9120    -1.3360 ha         1 4VD       0.114000
     36 H38         -2.0580     2.5080     2.1970 h1         1 4VD       0.068700
     37 H37         -2.3990     4.0350     1.3700 h1         1 4VD       0.068700
     38 H41         -5.8550     0.2300    -2.6100 ha         1 4VD       0.111000
     39 H42         -6.9530    -1.8920    -3.2820 ha         1 4VD       0.115000
     40 H43         -6.4960    -3.9900    -2.0040 ha         1 4VD       0.133000
     41 H47          3.3870    -2.1290     3.4220 h4         1 4VD       0.244000
     42 H48          7.1720    -3.5410     0.5330 ha         1 4VD       0.148000
     43 H49          7.4630    -2.5390    -1.7330 ha         1 4VD       0.128000
     44 H36         -0.8920     4.9020    -0.3930 ha         1 4VD       0.113000
     45 H39         -3.3890     2.8640    -0.4440 hn         1 4VD       0.310500
     46 H40         -4.4440     1.3570    -1.2520 hn         1 4VD       0.147000
     47 H44         -3.8450    -1.8590     0.6140 ha         1 4VD       0.166000
     48 H45         -0.1070     1.1390     1.5420 ha         1 4VD       0.148000
     49 H46          3.2680     0.8890     0.0340 hn         1 4VD       0.155000
     50 H50          5.7510    -0.8960    -2.5630 ha         1 4VD       0.133000
     51 H51          3.8110    -0.1840    -1.1110 h4         1 4VD       0.148000
@<TRIPOS>BOND
     1     1     2 1   
     2     1    32 1   
     3     1    33 1   
     4     1    34 1   
     5     2     3 ar  
     6     2    13 ar  
     7     3    20 ar  
     8     3    35 1   
     9     4     5 1   
    10     4    20 ar  
    11     4    25 ar  
    12     5    21 1   
    13     5    36 1   
    14     5    37 1   
    15     6     7 2   
    16     6    21 1   
    17     6    22 1   
    18     8     9 ar  
    19     8    22 1   
    20     8    24 ar  
    21     9    10 ar  
    22     9    38 1   
    23    10    11 ar  
    24    10    39 1   
    25    11    12 ar  
    26    11    40 1   
    27    12    23 1   
    28    12    24 ar  
    29    13    25 ar  
    30    13    26 1   
    31    14    15 1   
    32    14    26 1   
    33    14    27 2   
    34    15    16 2   
    35    15    31 1   
    36    16    28 1   
    37    16    41 1   
    38    17    18 1   
    39    17    28 2   
    40    17    31 1   
    41    18    19 2   
    42    18    42 1   
    43    19    29 1   
    44    19    43 1   
    45    20    44 1   
    46    21    45 1   
    47    22    46 1   
    48    24    47 1   
    49    25    48 1   
    50    26    49 1   
    51    29    30 2   
    52    29    50 1   
    53    30    31 1   
    54    30    51 1   
@<TRIPOS>SUBSTRUCTURE
     1 4VD         1 TEMP              0 ****  ****    0 ROOT
