@<TRIPOS>MOLECULE
4VE
   52    56     1     0     0
SMALL
abcg2


@<TRIPOS>ATOM
      1 C1          -2.1480     1.5570    -2.5660 c3         1 4VE      -0.113100
      2 C2          -1.7670     1.2290    -1.1260 c3         1 4VE       0.301800
      3 N4          -2.8510     1.5220    -0.1950 nu         1 4VE      -0.889400
      4 C5          -3.8970     0.7110    -0.0640 cc         1 4VE       0.784500
      5 C7          -5.2870    -0.8730    -0.1250 ca         1 4VE       0.130400
      6 C8          -6.0080    -2.0380    -0.3480 ca         1 4VE      -0.120000
      7 C11         -7.7280    -1.1670     1.1610 ca         1 4VE      -0.161000
      8 C12         -7.0000     0.0020     1.3840 ca         1 4VE      -0.053000
      9 C13         -5.7990     0.1040     0.7280 ca         1 4VE      -0.011900
     10 C15         -0.5240     1.9650    -0.6850 ca         1 4VE      -0.091300
     11 C16         -0.4770     3.3550    -0.6750 ca         1 4VE      -0.115000
     12 C22          3.4140     0.1010    -0.1150 c          1 4VE       0.663300
     13 C24          4.6810    -0.3720     0.4380 cc         1 4VE      -0.286300
     14 C25          5.5610     0.1980     1.3380 cd         1 4VE       0.015600
     15 C27          6.4700    -1.6350     0.7750 cc         1 4VE      -0.061000
     16 C28          7.3010    -2.7560     0.6120 cc         1 4VE      -0.087000
     17 C31          4.8890    -2.5600    -0.7730 cc         1 4VE      -0.090000
     18 N32          5.2830    -1.5630     0.0730 na         1 4VE       0.173100
     19 N6          -4.0720    -0.4520    -0.6180 nd         1 4VE      -0.665100
     20 C9          -7.2200    -2.1420     0.3150 ca         1 4VE       0.169000
     21 F10         -7.9490    -3.2570     0.1250 f          1 4VE      -0.180000
     22 O14         -4.8880     1.1230     0.7580 os         1 4VE      -0.309700
     23 C17          0.6750     4.0080    -0.2650 ca         1 4VE      -0.094000
     24 C18          1.8150     3.3070     0.1170 ca         1 4VE      -0.098300
     25 C20          1.7610     1.9090     0.0990 ca         1 4VE      -0.030000
     26 N21          2.8980     1.1920     0.5120 ns         1 4VE      -0.152000
     27 O23          2.8730    -0.4390    -1.0690 o          1 4VE      -0.604100
     28 N26          6.6420    -0.5640     1.5420 nd         1 4VE      -0.295600
     29 C29          6.9110    -3.7520    -0.2350 cd         1 4VE      -0.087000
     30 C30          5.6860    -3.6470    -0.9320 cd         1 4VE      -0.149000
     31 C33          0.5960     1.2510    -0.2850 ca         1 4VE      -0.085000
     32 H35         -3.0230     0.9830    -2.8730 hc         1 4VE       0.050033
     33 H34         -2.3740     2.6170    -2.6870 hc         1 4VE       0.050033
     34 H36         -1.3280     1.3050    -3.2380 hc         1 4VE       0.050033
     35 H3          -1.5730     0.1570    -1.0550 h1         1 4VE       0.088700
     36 H37         -2.9040     2.4400     0.2210 hn         1 4VE       0.509000
     37 H38         -5.6500    -2.8230    -1.0010 ha         1 4VE       0.149000
     38 H39         -8.6840    -1.3160     1.6440 ha         1 4VE       0.135000
     39 H40         -7.3750     0.7760     2.0380 ha         1 4VE       0.133000
     40 H41         -1.3320     3.9420    -0.9900 ha         1 4VE       0.114000
     41 H43          3.3000     3.8840     1.5810 hc         1 4VE       0.045033
     42 H45          3.9280     3.7000    -0.0520 hc         1 4VE       0.045033
     43 H44          2.9550     5.1050     0.3700 hc         1 4VE       0.045033
     44 H47          5.4550     1.1490     1.8400 h4         1 4VE       0.221000
     45 H48          8.2280    -2.7980     1.1660 ha         1 4VE       0.147000
     46 H51          3.9500    -2.4300    -1.2830 h4         1 4VE       0.179000
     47 H42          0.6980     5.0900    -0.2590 ha         1 4VE       0.116000
     48 H46          3.4170     1.5860     1.2810 hn         1 4VE       0.159000
     49 H49          7.5360    -4.6230    -0.3740 ha         1 4VE       0.128000
     50 H50          5.3650    -4.4310    -1.6030 ha         1 4VE       0.137000
     51 H52          0.5540     0.1710    -0.2670 ha         1 4VE       0.140000
     52 C19          3.0630     4.0330     0.5240 c3         1 4VE      -0.050800
@<TRIPOS>BOND
     1     1     2 1   
     2     1    32 1   
     3     1    33 1   
     4     1    34 1   
     5     2     3 1   
     6     2    10 1   
     7     2    35 1   
     8     3     4 1   
     9     3    36 1   
    10     4    19 2   
    11     4    22 1   
    12     5     6 ar  
    13     5     9 ar  
    14     5    19 1   
    15     6    20 ar  
    16     6    37 1   
    17     7     8 ar  
    18     7    20 ar  
    19     7    38 1   
    20     8     9 ar  
    21     8    39 1   
    22     9    22 1   
    23    10    11 ar  
    24    10    31 ar  
    25    11    23 ar  
    26    11    40 1   
    27    12    13 1   
    28    12    26 1   
    29    12    27 2   
    30    13    14 2   
    31    13    18 1   
    32    14    28 1   
    33    14    44 1   
    34    15    16 1   
    35    15    18 1   
    36    15    28 2   
    37    16    29 2   
    38    16    45 1   
    39    17    18 1   
    40    17    30 2   
    41    17    46 1   
    42    20    21 1   
    43    23    24 ar  
    44    23    47 1   
    45    24    25 ar  
    46    24    52 1   
    47    25    26 1   
    48    25    31 ar  
    49    26    48 1   
    50    29    30 1   
    51    29    49 1   
    52    30    50 1   
    53    31    51 1   
    54    41    52 1   
    55    42    52 1   
    56    43    52 1   
@<TRIPOS>SUBSTRUCTURE
     1 4VE         1 TEMP              0 ****  ****    0 ROOT
