@<TRIPOS>MOLECULE
4VE
   52    56     1     0     0
SMALL
No Charge or Current Charge


@<TRIPOS>ATOM
      1 C1          -2.4400     2.3580    -2.7810 c3         1 4VE      -0.113100
      2 C2          -1.9210     1.6760    -1.5000 c3         1 4VE       0.301800
      3 N4          -2.9380     1.7580    -0.4550 nu         1 4VE      -0.889400
      4 C5          -3.8690     0.8190    -0.1690 cc         1 4VE       0.784500
      5 C7          -5.1190    -0.8510    -0.2360 ca         1 4VE       0.130400
      6 C8          -5.8110    -2.0270    -0.5500 ca         1 4VE      -0.120000
      7 C11         -7.0730    -1.7530     1.5390 ca         1 4VE      -0.161000
      8 C12         -6.3600    -0.5700     1.8310 ca         1 4VE      -0.053000
      9 C13         -5.3890    -0.1570     0.9100 ca         1 4VE      -0.011900
     10 C15         -0.6190     2.2900    -0.9810 ca         1 4VE      -0.091300
     11 C16         -0.5070     3.6750    -0.7490 ca         1 4VE      -0.115000
     12 C22          3.1540    -0.1320    -0.2590 c          1 4VE       0.663300
     13 C24          4.4500    -0.5820     0.3100 cc         1 4VE      -0.286300
     14 C25          5.2990     0.1810     1.1040 cd         1 4VE       0.015600
     15 C27          6.3040    -1.7240     0.9270 cc         1 4VE      -0.061000
     16 C28          7.1690    -2.8500     0.9800 cc         1 4VE      -0.087000
     17 C31          4.6870    -2.9010    -0.4720 cc         1 4VE      -0.090000
     18 N32          5.1320    -1.7720     0.2320 na         1 4VE       0.173100
     19 N6          -4.1260    -0.2270    -0.9570 nd         1 4VE      -0.665100
     20 C9          -6.7960    -2.4740     0.3540 ca         1 4VE       0.169000
     21 F10         -7.4850    -3.6040     0.0850 f          1 4VE      -0.180000
     22 O14         -4.5990     0.9400     0.9980 os         1 4VE      -0.309700
     23 C17          0.6890     4.2170    -0.2580 ca         1 4VE      -0.094000
     24 C18          1.7960     3.3890     0.0070 ca         1 4VE      -0.098300
     25 C20          1.7020     1.9960    -0.2240 ca         1 4VE      -0.030000
     26 N21          2.8360     1.1820     0.0650 ns         1 4VE      -0.152000
     27 O23          2.4440    -0.8470    -0.9540 o          1 4VE      -0.604100
     28 N26          6.4350    -0.5330     1.4750 nd         1 4VE      -0.295600
     29 C29          6.7960    -3.9920     0.3120 cd         1 4VE      -0.087000
     30 C30          5.5460    -4.0000    -0.4130 cd         1 4VE      -0.149000
     31 C33          0.4870     1.4590    -0.7090 ca         1 4VE      -0.085000
     32 H35         -3.3210     1.8310    -3.1650 hc         1 4VE       0.050033
     33 H34         -2.7210     3.4010    -2.5960 hc         1 4VE       0.050033
     34 H36         -1.6680     2.3400    -3.5590 hc         1 4VE       0.050033
     35 H3          -1.7250     0.6220    -1.7490 h1         1 4VE       0.088700
     36 H37         -2.7760     2.3940     0.3180 hn         1 4VE       0.509000
     37 H38         -5.5960    -2.5770    -1.4600 ha         1 4VE       0.149000
     38 H39         -7.8360    -2.1130     2.2240 ha         1 4VE       0.135000
     39 H40         -6.5560     0.0010     2.7360 ha         1 4VE       0.133000
     40 H41         -1.3490     4.3360    -0.9390 ha         1 4VE       0.114000
     41 H43          3.3240     3.6330     1.5390 hc         1 4VE       0.045033
     42 H45          3.9320     3.8010    -0.1200 hc         1 4VE       0.045033
     43 H44          3.0030     5.1060     0.6210 hc         1 4VE       0.045033
     44 H47          5.1720     1.2080     1.4390 h4         1 4VE       0.221000
     45 H48          8.0990    -2.7940     1.5380 ha         1 4VE       0.147000
     46 H51          3.7470    -2.8670    -1.0010 h4         1 4VE       0.179000
     47 H42          0.7540     5.2890    -0.0830 ha         1 4VE       0.116000
     48 H46          3.5400     1.6530     0.6120 hn         1 4VE       0.159000
     49 H49          7.4320    -4.8720     0.3290 ha         1 4VE       0.128000
     50 H50          5.2600    -4.9070    -0.9380 ha         1 4VE       0.137000
     51 H52          0.3780     0.3910    -0.8660 ha         1 4VE       0.140000
     52 C19          3.0830     4.0160     0.5410 c3         1 4VE      -0.050800
@<TRIPOS>BOND
     1     1     2 1   
     2     1    32 1   
     3     1    33 1   
     4     1    34 1   
     5     2     3 1   
     6     2    10 1   
     7     2    35 1   
     8     3     4 1   
     9     3    36 1   
    10     4    19 2   
    11     4    22 1   
    12     5     6 ar  
    13     5     9 ar  
    14     5    19 1   
    15     6    20 ar  
    16     6    37 1   
    17     7     8 ar  
    18     7    20 ar  
    19     7    38 1   
    20     8     9 ar  
    21     8    39 1   
    22     9    22 1   
    23    10    11 ar  
    24    10    31 ar  
    25    11    23 ar  
    26    11    40 1   
    27    12    13 1   
    28    12    26 1   
    29    12    27 2   
    30    13    14 2   
    31    13    18 1   
    32    14    28 1   
    33    14    44 1   
    34    15    16 1   
    35    15    18 1   
    36    15    28 2   
    37    16    29 2   
    38    16    45 1   
    39    17    18 1   
    40    17    30 2   
    41    17    46 1   
    42    20    21 1   
    43    23    24 ar  
    44    23    47 1   
    45    24    25 ar  
    46    24    52 1   
    47    25    26 1   
    48    25    31 ar  
    49    26    48 1   
    50    29    30 1   
    51    29    49 1   
    52    30    50 1   
    53    31    51 1   
    54    41    52 1   
    55    42    52 1   
    56    43    52 1   
@<TRIPOS>SUBSTRUCTURE
     1 4VE         1 TEMP              0 ****  ****    0 ROOT
