@<TRIPOS>MOLECULE
4VF
   59    63     1     0     0
SMALL
abcg2


@<TRIPOS>ATOM
      1 C2          -0.8090     1.1960    -0.2250 cc         1 4VF      -0.269600
      2 C3          -1.5250    -0.9380     0.7410 c6         1 4VF       0.049600
      3 C12          4.9780     0.4930     0.1170 ca         1 4VF       0.389900
      4 C15          0.3620     1.8410    -0.5400 cd         1 4VF      -0.060000
      5 C16          1.4210     0.9990    -0.1260 cd         1 4VF      -0.263500
      6 C17          0.8410    -0.1370     0.4230 cc         1 4VF      -0.099000
      7 C18         -4.5460     1.1060    -0.0870 c3         1 4VF       0.161000
      8 C19         -5.3250    -0.1730    -0.3270 ca         1 4VF      -0.085300
      9 C20         -6.4990    -0.4750     0.3540 ca         1 4VF      -0.084000
     10 C21         -7.1900    -1.6390     0.0460 ca         1 4VF       0.115000
     11 C22         -6.7420    -2.5230    -0.9190 ca         1 4VF      -0.098000
     12 C23         -5.5670    -2.2180    -1.5940 ca         1 4VF      -0.107000
     13 C24         -4.8680    -1.0580    -1.3040 ca         1 4VF      -0.101000
     14 C25          7.2090    -0.5230     0.4400 c6         1 4VF       0.249500
     15 C26          7.8070    -1.5020     1.4440 c6         1 4VF      -0.132900
     16 C27          9.3150    -1.5900     1.2570 c6         1 4VF       0.157600
     17 C29          9.1860    -1.0160    -1.0070 c6         1 4VF       0.157600
     18 C30          7.6700    -0.9040    -0.9680 c6         1 4VF      -0.132900
     19 CL1         -8.6530    -1.9950     0.9110 cl         1 4VF      -0.205000
     20 O28          9.6680    -1.9460    -0.0610 os         1 4VF      -0.451000
     21 N5          -3.1350     0.8030     0.1240 n          1 4VF      -0.411800
     22 C31         -5.1030     2.0370     0.9780 c3         1 4VF       0.141600
     23 C8           2.8510     1.2440    -0.2240 ca         1 4VF       0.271500
     24 C6          -2.1970     1.5890    -0.4650 c          1 4VF       0.605600
     25 N13          3.6600     0.2800     0.2000 nb         1 4VF      -0.276000
     26 N14          5.7710    -0.4950     0.5780 nu         1 4VF      -0.923100
     27 C4          -2.7430    -0.1450     1.1610 c6         1 4VF       0.097000
     28 C10          4.7370     2.5470    -0.7800 ca         1 4VF       0.147900
     29 O7          -2.4650     2.5530    -1.1730 o          1 4VF      -0.556000
     30 C9           3.3620     2.4390    -0.7400 ca         1 4VF      -0.280000
     31 N1          -0.4910     0.0020     0.3640 na         1 4VF       0.044000
     32 N11          5.5610     1.5960    -0.3630 nb         1 4VF      -0.253000
     33 H1          -1.1750    -1.5490     1.5710 h1         1 4VF       0.069200
     34 H2          -1.7500    -1.5970    -0.1010 h1         1 4VF       0.069200
     35 H3           0.4370     2.8090    -1.0100 ha         1 4VF       0.150000
     36 H4           1.3000    -1.0130     0.8510 h4         1 4VF       0.164000
     37 H5          -4.5960     1.6810    -1.0150 h1         1 4VF       0.097700
     38 H6          -6.8810     0.1740     1.1280 ha         1 4VF       0.138000
     39 H7          -7.2910    -3.4270    -1.1440 ha         1 4VF       0.131000
     40 H8          -5.2010    -2.8920    -2.3560 ha         1 4VF       0.120000
     41 H9          -3.9560    -0.8390    -1.8450 ha         1 4VF       0.124000
     42 H10          7.5850     0.4790     0.6670 h1         1 4VF       0.077700
     43 H11          7.5860    -1.1890     2.4670 hc         1 4VF       0.057200
     44 H12          7.3650    -2.4940     1.3020 hc         1 4VF       0.057200
     45 H13          9.7740    -0.6280     1.5280 h1         1 4VF       0.046700
     46 H14          9.7350    -2.3490     1.9180 h1         1 4VF       0.046700
     47 H15          9.5240    -1.3510    -1.9880 h1         1 4VF       0.046700
     48 H16          9.6290    -0.0250    -0.8270 h1         1 4VF       0.046700
     49 H17          7.2150    -1.8580    -1.2530 hc         1 4VF       0.057200
     50 H18          7.3430    -0.1540    -1.6920 hc         1 4VF       0.057200
     51 H19         -5.3130     2.0680     2.9040 ho         1 4VF       0.448000
     52 H20         -4.5130     2.9600     0.9530 h1         1 4VF       0.037200
     53 H21         -6.1290     2.3110     0.6980 h1         1 4VF       0.037200
     54 H22          5.3030    -1.3530     0.8270 hn         1 4VF       0.497000
     55 H23         -3.5620    -0.8370     1.3400 h1         1 4VF       0.071200
     56 H24         -2.5400     0.3730     2.1020 h1         1 4VF       0.071200
     57 H25          5.2010     3.4470    -1.1690 h4         1 4VF       0.017100
     58 H26          2.7290     3.2400    -1.0910 ha         1 4VF       0.135000
     59 O32         -5.0460     1.4230     2.2420 oh         1 4VF      -0.667000
@<TRIPOS>BOND
     1     1     4 2   
     2     1    24 1   
     3     1    31 1   
     4     2    27 1   
     5     2    31 1   
     6     2    33 1   
     7     2    34 1   
     8     3    25 ar  
     9     3    26 1   
    10     3    32 ar  
    11     4     5 1   
    12     4    35 1   
    13     5     6 2   
    14     5    23 1   
    15     6    31 1   
    16     6    36 1   
    17     7     8 1   
    18     7    21 1   
    19     7    22 1   
    20     7    37 1   
    21     8     9 ar  
    22     8    13 ar  
    23     9    10 ar  
    24     9    38 1   
    25    10    11 ar  
    26    10    19 1   
    27    11    12 ar  
    28    11    39 1   
    29    12    13 ar  
    30    12    40 1   
    31    13    41 1   
    32    14    15 1   
    33    14    18 1   
    34    14    26 1   
    35    14    42 1   
    36    15    16 1   
    37    15    43 1   
    38    15    44 1   
    39    16    20 1   
    40    16    45 1   
    41    16    46 1   
    42    17    18 1   
    43    17    20 1   
    44    17    47 1   
    45    17    48 1   
    46    18    49 1   
    47    18    50 1   
    48    21    24 1   
    49    21    27 1   
    50    22    52 1   
    51    22    53 1   
    52    22    59 1   
    53    23    25 ar  
    54    23    30 ar  
    55    24    29 2   
    56    26    54 1   
    57    27    55 1   
    58    27    56 1   
    59    28    30 ar  
    60    28    32 ar  
    61    28    57 1   
    62    30    58 1   
    63    51    59 1   
@<TRIPOS>SUBSTRUCTURE
     1 4VF         1 TEMP              0 ****  ****    0 ROOT
