@<TRIPOS>MOLECULE
4VF
   59    63     1     0     0
SMALL
No Charge or Current Charge


@<TRIPOS>ATOM
      1 C2          -0.8310     1.2290    -0.0760 cc         1 4VF      -0.269600
      2 C3          -1.5280    -0.8810     1.0320 c6         1 4VF       0.049600
      3 C12          5.0290     0.5530     0.0870 ca         1 4VF       0.389900
      4 C15          0.3480     1.8100    -0.4520 cd         1 4VF      -0.060000
      5 C16          1.4210     0.9930    -0.0070 cd         1 4VF      -0.263500
      6 C17          0.8820    -0.1040     0.6320 cc         1 4VF      -0.099000
      7 C18         -4.6290     1.1560    -0.0330 c3         1 4VF       0.161000
      8 C19         -5.3640    -0.1480    -0.4060 ca         1 4VF      -0.085300
      9 C20         -6.5260    -0.6040     0.2610 ca         1 4VF      -0.084000
     10 C21         -7.1450    -1.8040    -0.1270 ca         1 4VF       0.115000
     11 C22         -6.6210    -2.5640    -1.1830 ca         1 4VF      -0.098000
     12 C23         -5.4720    -2.1210    -1.8570 ca         1 4VF      -0.107000
     13 C24         -4.8500    -0.9210    -1.4700 ca         1 4VF      -0.101000
     14 C25          7.3330    -0.4940     0.4120 c6         1 4VF       0.249500
     15 C26          7.9360    -1.4270     1.4870 c6         1 4VF      -0.132900
     16 C27          9.4500    -1.6160     1.2390 c6         1 4VF       0.157600
     17 C29          9.2000    -1.2280    -1.1390 c6         1 4VF       0.157600
     18 C30          7.6750    -1.0180    -1.0040 c6         1 4VF      -0.132900
     19 Cl1         -8.5860    -2.3570     0.7160 cl         1 4VF      -0.205000
     20 O28          9.6660    -2.1150    -0.0990 os         1 4VF      -0.451000
     21 N5          -3.1890     0.9150     0.2680 n          1 4VF      -0.411800
     22 C31         -5.3250     2.0580     1.0370 c3         1 4VF       0.141600
     23 C8           2.8610     1.2460    -0.1980 ca         1 4VF       0.271500
     24 C6          -2.1940     1.7180    -0.3420 c          1 4VF       0.605600
     25 N13          3.7210     0.3180     0.2700 nb         1 4VF      -0.276000
     26 N14          5.8750    -0.4260     0.5910 nu         1 4VF      -0.923100
     27 C4          -2.8370    -0.0990     1.3190 c6         1 4VF       0.097000
     28 C10          4.7240     2.5520    -0.9830 ca         1 4VF       0.147900
     29 O7          -2.4450     2.7020    -1.0230 o          1 4VF      -0.556000
     30 C9           3.3360     2.4010    -0.8460 ca         1 4VF      -0.280000
     31 N1          -0.4990     0.0580     0.5720 na         1 4VF       0.044000
     32 N11          5.5790     1.6260    -0.5140 nb         1 4VF      -0.253000
     33 H1          -1.1870    -1.4060     1.9340 h1         1 4VF       0.069200
     34 H2          -1.7050    -1.6220     0.2410 h1         1 4VF       0.069200
     35 H3           0.4330     2.7460    -0.9990 ha         1 4VF       0.150000
     36 H4           1.3510    -0.9620     1.0980 h4         1 4VF       0.164000
     37 H5          -4.6730     1.7510    -0.9540 h1         1 4VF       0.097700
     38 H6          -6.9610    -0.0460     1.0830 ha         1 4VF       0.138000
     39 H7          -7.1050    -3.4920    -1.4790 ha         1 4VF       0.131000
     40 H8          -5.0620    -2.7060    -2.6770 ha         1 4VF       0.120000
     41 H9          -3.9600    -0.5900    -2.0010 ha         1 4VF       0.124000
     42 H10          7.7850     0.5030     0.5430 h1         1 4VF       0.077700
     43 H11          7.7730    -1.0070     2.4890 hc         1 4VF       0.057200
     44 H12          7.4410    -2.4080     1.4660 hc         1 4VF       0.057200
     45 H13          9.9820    -0.6610     1.3630 h1         1 4VF       0.046700
     46 H14          9.8630    -2.3350     1.9610 h1         1 4VF       0.046700
     47 H15          9.4340    -1.6700    -2.1180 h1         1 4VF       0.046700
     48 H16          9.7290    -0.2660    -1.0620 h1         1 4VF       0.046700
     49 H17          7.1580    -1.9680    -1.1950 hc         1 4VF       0.057200
     50 H18          7.3310    -0.3090    -1.7690 hc         1 4VF       0.057200
     51 H19         -5.6880     2.1520     2.9710 ho         1 4VF       0.448000
     52 H20         -4.8120     3.0290     1.0460 h1         1 4VF       0.037200
     53 H21         -6.3600     2.2480     0.7220 h1         1 4VF       0.037200
     54 H22          5.4030    -1.2160     1.0300 hn         1 4VF       0.497000
     55 H23         -3.6600    -0.8150     1.4580 h1         1 4VF       0.071200
     56 H24         -2.7160     0.4330     2.2730 h1         1 4VF       0.071200
     57 H25          5.1580     3.4230    -1.4730 h4         1 4VF       0.017100
     58 H26          2.6630     3.1600    -1.2310 ha         1 4VF       0.135000
     59 O32         -5.2990     1.4860     2.3600 oh         1 4VF      -0.667000
@<TRIPOS>BOND
     1     1     4 2   
     2     1    24 1   
     3     1    31 1   
     4     2    27 1   
     5     2    31 1   
     6     2    33 1   
     7     2    34 1   
     8     3    25 ar  
     9     3    26 1   
    10     3    32 ar  
    11     4     5 1   
    12     4    35 1   
    13     5     6 2   
    14     5    23 1   
    15     6    31 1   
    16     6    36 1   
    17     7     8 1   
    18     7    21 1   
    19     7    22 1   
    20     7    37 1   
    21     8     9 ar  
    22     8    13 ar  
    23     9    10 ar  
    24     9    38 1   
    25    10    11 ar  
    26    10    19 1   
    27    11    12 ar  
    28    11    39 1   
    29    12    13 ar  
    30    12    40 1   
    31    13    41 1   
    32    14    15 1   
    33    14    18 1   
    34    14    26 1   
    35    14    42 1   
    36    15    16 1   
    37    15    43 1   
    38    15    44 1   
    39    16    20 1   
    40    16    45 1   
    41    16    46 1   
    42    17    18 1   
    43    17    20 1   
    44    17    47 1   
    45    17    48 1   
    46    18    49 1   
    47    18    50 1   
    48    21    24 1   
    49    21    27 1   
    50    22    52 1   
    51    22    53 1   
    52    22    59 1   
    53    23    25 ar  
    54    23    30 ar  
    55    24    29 2   
    56    26    54 1   
    57    27    55 1   
    58    27    56 1   
    59    28    30 ar  
    60    28    32 ar  
    61    28    57 1   
    62    30    58 1   
    63    51    59 1   
@<TRIPOS>SUBSTRUCTURE
     1 4VF         1 TEMP              0 ****  ****    0 ROOT
