@<TRIPOS>MOLECULE
4VG
   62    66     1     0     0
SMALL
No Charge or Current Charge


@<TRIPOS>ATOM
      1 C1           0.8920    -0.4400    -0.1340 cc         1 4VG      -0.257600
      2 C3           2.3590    -0.2020    -0.0710 c          1 4VG       0.613600
      3 C12         -4.9170     0.6480    -0.2460 ca         1 4VG       0.387900
      4 C15          0.7590    -2.9680     0.0910 c3         1 4VG       0.068600
      5 C16          1.8060    -3.4000    -0.9560 c3         1 4VG      -0.114400
      6 C17          2.6540    -2.2350    -1.4930 c3         1 4VG       0.108000
      7 C19          4.6090    -1.3960    -0.1010 c3         1 4VG       0.179000
      8 C20          5.4240    -0.1320    -0.4300 ca         1 4VG      -0.063300
      9 C21          6.0340     0.6690     0.5630 ca         1 4VG      -0.069000
     10 C22          6.7660     1.8140     0.2040 ca         1 4VG       0.121000
     11 C23          6.9010     2.1740    -1.1460 ca         1 4VG      -0.097000
     12 C24          6.3000     1.3870    -2.1410 ca         1 4VG      -0.103000
     13 C25          5.5660     0.2430    -1.7840 ca         1 4VG      -0.097000
     14 C26          4.8520    -2.0320     1.3030 c3         1 4VG       0.145600
     15 C28         -7.4440     0.3030    -0.1610 c6         1 4VG       0.248500
     16 C29         -8.3870    -0.7920    -0.7120 c6         1 4VG      -0.131900
     17 C30         -9.8610    -0.3890    -0.4780 c6         1 4VG       0.157100
     18 N2           0.1710    -1.6380    -0.1480 na         1 4VG       0.042000
     19 C8          -2.6250     0.7180    -0.2070 ca         1 4VG       0.272500
     20 C6          -1.1970    -1.3740    -0.2230 cc         1 4VG      -0.110000
     21 C5          -1.3400    -0.0080    -0.1870 cd         1 4VG      -0.260500
     22 N13         -3.7540    -0.0200    -0.2340 nb         1 4VG      -0.276000
     23 N14         -6.0500    -0.1540    -0.2800 nu         1 4VG      -0.921100
     24 C4          -0.0460     0.5580    -0.1060 cd         1 4VG      -0.079000
     25 C32         -9.2850     0.9430     1.4610 c6         1 4VG       0.157100
     26 C10         -3.9560     2.7230    -0.2070 ca         1 4VG       0.146900
     27 O7           2.8270     0.8750     0.2730 o          1 4VG      -0.507000
     28 O31        -10.0810    -0.1370     0.9260 os         1 4VG      -0.451000
     29 C9          -2.6880     2.1240    -0.1900 ca         1 4VG      -0.279000
     30 N18          3.1570    -1.3150    -0.4420 n          1 4VG      -0.426800
     31 Cl1          7.5160     2.8010     1.4520 cl         1 4VG      -0.211000
     32 C33         -7.7840     0.6070     1.3180 c6         1 4VG      -0.131900
     33 N11         -5.0800     1.9850    -0.2370 nb         1 4VG      -0.254000
     34 O27          4.1730    -1.3300     2.3600 oh         1 4VG      -0.639000
     35 H1          -0.0390    -3.7180     0.1470 h1         1 4VG       0.066700
     36 H2           1.2450    -2.9320     1.0750 h1         1 4VG       0.066700
     37 H3           2.4600    -4.1600    -0.5120 hc         1 4VG       0.055700
     38 H4           1.2950    -3.8740    -1.8030 hc         1 4VG       0.055700
     39 H5           3.4880    -2.6440    -2.0770 h1         1 4VG       0.057200
     40 H6           2.0470    -1.6530    -2.2010 h1         1 4VG       0.057200
     41 H7           5.0390    -2.1460    -0.7770 h1         1 4VG       0.051700
     42 H8           5.9430     0.4240     1.6160 ha         1 4VG       0.137000
     43 H9           7.4680     3.0610    -1.4180 ha         1 4VG       0.128000
     44 H10          6.4010     1.6640    -3.1880 ha         1 4VG       0.116000
     45 H11          5.1030    -0.3580    -2.5640 ha         1 4VG       0.112000
     46 H12          4.4950    -3.0700     1.2710 h1         1 4VG       0.021200
     47 H13          5.9320    -2.0690     1.5000 h1         1 4VG       0.021200
     48 H14         -7.6040     1.2150    -0.7600 h1         1 4VG       0.080700
     49 H16         -8.1920    -1.7530    -0.2170 hc         1 4VG       0.056450
     50 H17        -10.1100     0.5140    -1.0550 h1         1 4VG       0.046450
     51 H18        -10.5290    -1.1990    -0.8060 h1         1 4VG       0.046450
     52 H19         -1.9380    -2.1640    -0.2570 h4         1 4VG       0.161000
     53 H20         -5.8670    -1.1570    -0.2800 hn         1 4VG       0.494000
     54 H21          0.1840     1.6190    -0.0580 ha         1 4VG       0.147000
     55 H22         -9.5240     1.8730     0.9230 h1         1 4VG       0.046450
     56 H23         -9.5400     1.0860     2.5210 h1         1 4VG       0.046450
     57 H24         -4.0750     3.8060    -0.1980 h4         1 4VG       0.016100
     58 H25         -1.7930     2.7370    -0.1670 ha         1 4VG       0.135000
     59 H26         -7.5420    -0.2580     1.9510 hc         1 4VG       0.056450
     60 H27         -7.1810     1.4480     1.6850 hc         1 4VG       0.056450
     61 H28          4.3240    -1.8370     3.1870 ho         1 4VG       0.441000
     62 H15         -8.2090    -0.9420    -1.7850 hc         1 4VG       0.056450
@<TRIPOS>BOND
     1     1     2 1   
     2     1    18 1   
     3     1    24 2   
     4     2    27 2   
     5     2    30 1   
     6     3    22 ar  
     7     3    23 1   
     8     3    33 ar  
     9     4     5 1   
    10     4    18 1   
    11     4    35 1   
    12     4    36 1   
    13     5     6 1   
    14     5    37 1   
    15     5    38 1   
    16     6    30 1   
    17     6    39 1   
    18     6    40 1   
    19     7     8 1   
    20     7    14 1   
    21     7    30 1   
    22     7    41 1   
    23     8     9 ar  
    24     8    13 ar  
    25     9    10 ar  
    26     9    42 1   
    27    10    11 ar  
    28    10    31 1   
    29    11    12 ar  
    30    11    43 1   
    31    12    13 ar  
    32    12    44 1   
    33    13    45 1   
    34    14    34 1   
    35    14    46 1   
    36    14    47 1   
    37    15    16 1   
    38    15    23 1   
    39    15    32 1   
    40    15    48 1   
    41    16    17 1   
    42    16    49 1   
    43    16    62 1   
    44    17    28 1   
    45    17    50 1   
    46    17    51 1   
    47    18    20 1   
    48    19    21 1   
    49    19    22 ar  
    50    19    29 ar  
    51    20    21 2   
    52    20    52 1   
    53    21    24 1   
    54    23    53 1   
    55    24    54 1   
    56    25    28 1   
    57    25    32 1   
    58    25    55 1   
    59    25    56 1   
    60    26    29 ar  
    61    26    33 ar  
    62    26    57 1   
    63    29    58 1   
    64    32    59 1   
    65    32    60 1   
    66    34    61 1   
@<TRIPOS>SUBSTRUCTURE
     1 4VG         1 TEMP              0 ****  ****    0 ROOT
