@<TRIPOS>MOLECULE
4VG
   62    66     1     0     0
SMALL
abcg2


@<TRIPOS>ATOM
      1 C1           0.9080    -0.3010    -0.0580 cc         1 4VG      -0.257600
      2 C3           2.3820    -0.1900    -0.0090 c          1 4VG       0.613600
      3 C12         -4.8670     0.5670    -0.3120 ca         1 4VG       0.387900
      4 C15          0.8630    -2.7500     0.4260 c3         1 4VG       0.068600
      5 C16          1.6730    -3.2740    -0.7530 c3         1 4VG      -0.114400
      6 C17          2.4090    -2.1500    -1.4740 c3         1 4VG       0.108000
      7 C19          4.5010    -1.3870    -0.3190 c3         1 4VG       0.179000
      8 C20          5.3070    -0.1090    -0.4580 ca         1 4VG      -0.063300
      9 C21          6.1010     0.3910     0.5660 ca         1 4VG      -0.069000
     10 C22          6.8720     1.5220     0.3420 ca         1 4VG       0.121000
     11 C23          6.8720     2.1790    -0.8750 ca         1 4VG      -0.097000
     12 C24          6.0770     1.6720    -1.8950 ca         1 4VG      -0.103000
     13 C25          5.3080     0.5390    -1.6900 ca         1 4VG      -0.097000
     14 C26          4.7160    -2.1910     0.9560 c3         1 4VG       0.145600
     15 C28         -7.3080     0.1910    -0.1530 c6         1 4VG       0.248500
     16 C29         -8.2450    -0.9290    -0.5920 c6         1 4VG      -0.131900
     17 C30         -9.6940    -0.5050    -0.4090 c6         1 4VG       0.157100
     18 N2           0.2260    -1.4810     0.1190 na         1 4VG       0.042000
     19 C8          -2.5930     0.7550    -0.2890 ca         1 4VG       0.272500
     20 C6          -1.0970    -1.2450     0.0640 cc         1 4VG      -0.110000
     21 C5          -1.2980     0.1080    -0.1590 cd         1 4VG      -0.260500
     22 N13         -3.6690    -0.0180    -0.2020 nb         1 4VG      -0.276000
     23 N14         -5.9360    -0.2530    -0.2480 nu         1 4VG      -0.921100
     24 C4          -0.0140     0.7030    -0.2180 cd         1 4VG      -0.079000
     25 C32         -9.1710     0.9760     1.3240 c6         1 4VG       0.157100
     26 C10         -3.9960     2.6290    -0.5850 ca         1 4VG       0.146900
     27 O7           2.8970     0.7810     0.5200 o          1 4VG      -0.507000
     28 O31         -9.9730    -0.1120     0.9170 os         1 4VG      -0.451000
     29 C9          -2.7110     2.1340    -0.4910 ca         1 4VG      -0.279000
     30 N18          3.0800    -1.1980    -0.5960 n          1 4VG      -0.426800
     31 CL1          7.8570     2.1340     1.6370 cl         1 4VG      -0.211000
     32 C33         -7.6890     0.6430     1.2560 c6         1 4VG      -0.131900
     33 N11         -5.0820     1.8740    -0.4960 nb         1 4VG      -0.254000
     34 O27          4.1070    -1.5620     2.0530 oh         1 4VG      -0.639000
     35 H1           0.0870    -3.4560     0.7140 h1         1 4VG       0.066700
     36 H2           1.5070    -2.6050     1.2940 h1         1 4VG       0.066700
     37 H3           2.3680    -4.0270    -0.3800 hc         1 4VG       0.055700
     38 H4           1.0220    -3.7710    -1.4750 hc         1 4VG       0.055700
     39 H5           3.1540    -2.5730    -2.1470 h1         1 4VG       0.057200
     40 H6           1.7120    -1.6050    -2.1120 h1         1 4VG       0.057200
     41 H7           4.8710    -2.0420    -1.1130 h1         1 4VG       0.051700
     42 H8           6.1090    -0.0740     1.5410 ha         1 4VG       0.137000
     43 H9           7.4780     3.0620    -1.0300 ha         1 4VG       0.128000
     44 H10          6.0700     2.1650    -2.8580 ha         1 4VG       0.116000
     45 H11          4.6990     0.1550    -2.4990 ha         1 4VG       0.112000
     46 H12          4.2980    -3.1910     0.7880 h1         1 4VG       0.021200
     47 H13          5.7960    -2.3280     1.1000 h1         1 4VG       0.021200
     48 H14         -7.4330     1.0360    -0.8350 h1         1 4VG       0.080700
     49 H16         -8.0460    -1.8290    -0.0020 hc         1 4VG       0.056450
     50 H17         -9.9260     0.3140    -1.1060 h1         1 4VG       0.046450
     51 H18        -10.3660    -1.3320    -0.6460 h1         1 4VG       0.046450
     52 H19         -1.8140    -2.0390     0.2010 h4         1 4VG       0.161000
     53 H20         -5.7360    -1.2070     0.0110 hn         1 4VG       0.494000
     54 H21          0.2210     1.7420    -0.3840 ha         1 4VG       0.147000
     55 H22         -9.3830     1.8590     0.7020 h1         1 4VG       0.046450
     56 H23         -9.4630     1.2220     2.3460 h1         1 4VG       0.046450
     57 H24         -4.1620     3.6910    -0.7350 h4         1 4VG       0.016100
     58 H25         -1.8550     2.7870    -0.5640 ha         1 4VG       0.135000
     59 H26         -7.4580    -0.1550     1.9680 hc         1 4VG       0.056450
     60 H27         -7.1060     1.5200     1.5470 hc         1 4VG       0.056450
     61 H28          4.1700    -2.1560     2.8070 ho         1 4VG       0.441000
     62 H15         -8.0730    -1.1830    -1.6410 hc         1 4VG       0.056450
@<TRIPOS>BOND
     1     1     2 1   
     2     1    18 1   
     3     1    24 2   
     4     2    27 2   
     5     2    30 1   
     6     3    22 ar  
     7     3    23 1   
     8     3    33 ar  
     9     4     5 1   
    10     4    18 1   
    11     4    35 1   
    12     4    36 1   
    13     5     6 1   
    14     5    37 1   
    15     5    38 1   
    16     6    30 1   
    17     6    39 1   
    18     6    40 1   
    19     7     8 1   
    20     7    14 1   
    21     7    30 1   
    22     7    41 1   
    23     8     9 ar  
    24     8    13 ar  
    25     9    10 ar  
    26     9    42 1   
    27    10    11 ar  
    28    10    31 1   
    29    11    12 ar  
    30    11    43 1   
    31    12    13 ar  
    32    12    44 1   
    33    13    45 1   
    34    14    34 1   
    35    14    46 1   
    36    14    47 1   
    37    15    16 1   
    38    15    23 1   
    39    15    32 1   
    40    15    48 1   
    41    16    17 1   
    42    16    49 1   
    43    16    62 1   
    44    17    28 1   
    45    17    50 1   
    46    17    51 1   
    47    18    20 1   
    48    19    21 1   
    49    19    22 ar  
    50    19    29 ar  
    51    20    21 2   
    52    20    52 1   
    53    21    24 1   
    54    23    53 1   
    55    24    54 1   
    56    25    28 1   
    57    25    32 1   
    58    25    55 1   
    59    25    56 1   
    60    26    29 ar  
    61    26    33 ar  
    62    26    57 1   
    63    29    58 1   
    64    32    59 1   
    65    32    60 1   
    66    34    61 1   
@<TRIPOS>SUBSTRUCTURE
     1 4VG         1 TEMP              0 ****  ****    0 ROOT
