@<TRIPOS>MOLECULE
4VH
   85    88     1     0     0
SMALL
No Charge or Current Charge


@<TRIPOS>ATOM
      1 O5          22.3970    18.9220    43.9090 os         1 4VH      -0.412000
      2 C5          23.8310    18.7400    44.0310 c6         1 4VH       0.159300
      3 C4          24.2490    17.3120    43.5490 c6         1 4VH       0.151300
      4 C3          23.4350    16.2570    44.3590 c6         1 4VH       0.140300
      5 C2          21.9020    16.5430    44.2890 c6         1 4VH       0.116300
      6 C1          21.6210    18.0180    44.7280 c6         1 4VH       0.256300
      7 C6          24.5550    19.8800    43.2440 c3         1 4VH       0.173600
      8 O4          24.0140    17.1070    42.1410 oh         1 4VH      -0.708000
      9 O3          23.7070    14.9290    43.8750 oh         1 4VH      -0.668000
     10 O6          24.2300    21.2000    43.7290 oh         1 4VH      -0.720000
     11 S1          19.8280    18.4670    44.5800 ss         1 4VH      -0.143000
     12 O2          21.1930    15.5760    45.1040 oh         1 4VH      -0.725000
     13 C7          19.6720    20.1070    45.3070 ca         1 4VH      -0.083000
     14 C8          20.7390    20.7840    45.9330 ca         1 4VH      -0.099500
     15 C9          20.5440    22.0620    46.4840 ca         1 4VH      -0.063000
     16 C10         19.2800    22.6910    46.4330 ca         1 4VH      -0.151600
     17 C11         18.2180    22.0110    45.7950 ca         1 4VH      -0.063000
     18 C12         18.4160    20.7330    45.2430 ca         1 4VH      -0.099500
     19 C13         19.1080    24.0670    47.0410 c          1 4VH       0.622700
     20 O13         20.0650    24.7570    47.3630 o          1 4VH      -0.601100
     21 N1          17.8160    24.5220    47.1990 ns         1 4VH      -0.510900
     22 C14         17.4510    25.8230    47.7830 c3         1 4VH       0.093000
     23 C15         17.7960    25.9490    49.2870 c3         1 4VH       0.044600
     24 N2          17.1830    24.8940    50.1050 na         1 4VH       0.135800
     25 C16         15.8450    24.6350    50.2520 cc         1 4VH      -0.216000
     26 C17         15.8290    23.4790    50.9770 cd         1 4VH       0.193300
     27 N3          17.1200    23.1160    51.2950 nd         1 4VH      -0.368000
     28 N4          17.9470    23.9760    50.7630 nc         1 4VH      -0.179800
     29 C18         14.6360    22.6330    51.3360 c3         1 4VH      -0.094700
     30 C19         14.5560    21.3290    50.4850 c3         1 4VH       0.045700
     31 N5          14.9350    21.5120    49.0540 ns         1 4VH      -0.490900
     32 C20         13.2320    20.5140    50.6560 c          1 4VH       0.580100
     33 N6          12.7400    20.4430    51.9450 ns         1 4VH      -0.499900
     34 O7          12.6480    19.9900    49.7160 o          1 4VH      -0.585100
     35 C21         11.5510    19.6740    52.3520 c3         1 4VH       0.097000
     36 C22         11.9010    18.3540    53.0840 c3         1 4VH       0.139600
     37 O8          12.6930    17.4900    52.2530 oh         1 4VH      -0.646000
     38 C23         14.5060    22.5020    48.1910 c          1 4VH       0.578100
     39 O9          15.2310    22.8160    47.2580 o          1 4VH      -0.576100
     40 C24         13.0810    23.0960    48.3850 c3         1 4VH       0.089600
     41 O10         12.5860    23.7670    47.2000 os         1 4VH      -0.332100
     42 C25         12.2570    23.0910    46.0410 ca         1 4VH       0.138100
     43 C26         11.9220    23.8570    44.9110 ca         1 4VH      -0.160500
     44 C27         11.5750    23.2310    43.7020 ca         1 4VH      -0.078000
     45 C28         11.5600    21.8280    43.6200 ca         1 4VH      -0.147000
     46 C29         11.8880    21.0540    44.7450 ca         1 4VH      -0.078000
     47 C30         12.2350    21.6800    45.9560 ca         1 4VH      -0.160500
     48 H1          24.1060    18.8470    45.0910 h1         1 4VH       0.051700
     49 H2          25.3170    17.1690    43.7730 h1         1 4VH       0.049700
     50 H3          23.7450    16.3330    45.4130 h1         1 4VH       0.049700
     51 H4          21.5830    16.4490    43.2400 h1         1 4VH       0.073700
     52 H5          21.8940    18.1390    45.7870 h2         1 4VH       0.068700
     53 H6          24.2850    19.7920    42.1830 h1         1 4VH       0.039700
     54 H7          25.6380    19.7090    43.3180 h1         1 4VH       0.039700
     55 H8          23.9790    16.1250    42.0420 ho         1 4VH       0.522000
     56 H9          23.0120    14.3650    44.2880 ho         1 4VH       0.469000
     57 H10         24.6540    21.8440    43.1150 ho         1 4VH       0.508000
     58 H11         20.2270    15.7060    44.9460 ho         1 4VH       0.525000
     59 H12         21.7270    20.3410    46.0020 ha         1 4VH       0.137000
     60 H13         21.3840    22.5620    46.9620 ha         1 4VH       0.125500
     61 H14         17.2360    22.4650    45.6980 ha         1 4VH       0.125500
     62 H15         17.5840    20.2270    44.7570 ha         1 4VH       0.137000
     63 H16         17.0680    23.8760    46.9620 hn         1 4VH       0.330500
     64 H17         17.9670    26.6180    47.2270 h1         1 4VH       0.063700
     65 H18         16.3720    25.9710    47.6480 h1         1 4VH       0.063700
     66 H19         18.8840    25.9150    49.4200 h1         1 4VH       0.088200
     67 H20         17.4470    26.9200    49.6570 h1         1 4VH       0.088200
     68 H21         15.0600    25.2290    49.8050 h4         1 4VH       0.168000
     69 H22         13.7160    23.2160    51.2220 hc         1 4VH       0.057700
     70 H23         14.6920    22.3710    52.3990 hc         1 4VH       0.057700
     71 H24         15.3240    20.6660    50.9040 h1         1 4VH       0.083700
     72 H25         15.8020    21.0740    48.7650 hn         1 4VH       0.319500
     73 H26         13.2830    20.8980    52.6690 hn         1 4VH       0.310500
     74 H27         10.9310    19.4470    51.4750 h1         1 4VH       0.067200
     75 H28         10.9490    20.3000    53.0240 h1         1 4VH       0.067200
     76 H29         10.9680    17.8510    53.3700 h1         1 4VH       0.021200
     77 H30         12.4460    18.5930    54.0070 h1         1 4VH       0.021200
     78 H31         12.8800    16.6800    52.7770 ho         1 4VH       0.444000
     79 H32         12.3940    22.3020    48.6940 h1         1 4VH       0.069700
     80 H33         13.1390    23.8150    49.2070 h1         1 4VH       0.069700
     81 H34         11.9350    24.9420    44.9750 ha         1 4VH       0.130000
     82 H35         11.3200    23.8300    42.8310 ha         1 4VH       0.111000
     83 H36         11.2910    21.3420    42.6850 ha         1 4VH       0.111000
     84 H37         11.8710    19.9680    44.6800 ha         1 4VH       0.111000
     85 H38         12.4770    21.0560    46.8100 ha         1 4VH       0.130000
@<TRIPOS>BOND
     1     1     2 1   
     2     1     6 1   
     3     2     3 1   
     4     2     7 1   
     5     2    48 1   
     6     3     4 1   
     7     3     8 1   
     8     3    49 1   
     9     4     5 1   
    10     4     9 1   
    11     4    50 1   
    12     5     6 1   
    13     5    12 1   
    14     5    51 1   
    15     6    11 1   
    16     6    52 1   
    17     7    10 1   
    18     7    53 1   
    19     7    54 1   
    20     8    55 1   
    21     9    56 1   
    22    10    57 1   
    23    11    13 1   
    24    12    58 1   
    25    13    14 ar  
    26    13    18 ar  
    27    14    15 ar  
    28    14    59 1   
    29    15    16 ar  
    30    15    60 1   
    31    16    17 ar  
    32    16    19 1   
    33    17    18 ar  
    34    17    61 1   
    35    18    62 1   
    36    19    20 2   
    37    19    21 1   
    38    21    22 1   
    39    21    63 1   
    40    22    23 1   
    41    22    64 1   
    42    22    65 1   
    43    23    24 1   
    44    23    66 1   
    45    23    67 1   
    46    24    25 1   
    47    24    28 1   
    48    25    26 2   
    49    25    68 1   
    50    26    27 1   
    51    26    29 1   
    52    27    28 2   
    53    29    30 1   
    54    29    69 1   
    55    29    70 1   
    56    30    31 1   
    57    30    32 1   
    58    30    71 1   
    59    31    38 1   
    60    31    72 1   
    61    32    33 1   
    62    32    34 2   
    63    33    35 1   
    64    33    73 1   
    65    35    36 1   
    66    35    74 1   
    67    35    75 1   
    68    36    37 1   
    69    36    76 1   
    70    36    77 1   
    71    37    78 1   
    72    38    39 2   
    73    38    40 1   
    74    40    41 1   
    75    40    79 1   
    76    40    80 1   
    77    41    42 1   
    78    42    43 ar  
    79    42    47 ar  
    80    43    44 ar  
    81    43    81 1   
    82    44    45 ar  
    83    44    82 1   
    84    45    46 ar  
    85    45    83 1   
    86    46    47 ar  
    87    46    84 1   
    88    47    85 1   
@<TRIPOS>SUBSTRUCTURE
     1 4VH         1 TEMP              0 ****  ****    0 ROOT
