@<TRIPOS>MOLECULE
4VH
   85    88     1     0     0
SMALL
bcc


@<TRIPOS>ATOM
      1 O5          22.2010    19.0150    43.7850 os         1 4VH      -0.365600
      2 C5          23.5940    18.7650    43.6950 c6         1 4VH       0.136100
      3 C4          23.8640    17.2710    43.5840 c6         1 4VH       0.128100
      4 C3          23.2380    16.5740    44.7890 c6         1 4VH       0.117100
      5 C2          21.7590    16.9300    44.9250 c6         1 4VH       0.093100
      6 C1          21.6260    18.4600    44.9310 c6         1 4VH       0.185200
      7 C6          24.1370    19.5560    42.5250 c3         1 4VH       0.150400
      8 O4          23.3390    16.7990    42.3700 oh         1 4VH      -0.585800
      9 O3          23.4310    15.1920    44.6320 oh         1 4VH      -0.605800
     10 O6          24.0340    20.9270    42.8300 oh         1 4VH      -0.597800
     11 S1          19.8690    18.8880    44.9620 ss         1 4VH      -0.222000
     12 O2          21.3080    16.3630    46.1270 oh         1 4VH      -0.602800
     13 C7          19.8520    20.4730    45.7360 ca         1 4VH       0.043900
     14 C8          20.8640    21.4160    45.5560 ca         1 4VH      -0.117500
     15 C9          20.7720    22.6510    46.1740 ca         1 4VH      -0.081000
     16 C10         19.6530    22.9890    46.9310 ca         1 4VH      -0.151600
     17 C11         18.6420    22.0470    47.0970 ca         1 4VH      -0.081000
     18 C12         18.7430    20.7940    46.5160 ca         1 4VH      -0.117500
     19 C13         19.5960    24.3390    47.5660 c          1 4VH       0.689700
     20 O13         20.6070    24.9070    47.9550 o          1 4VH      -0.601100
     21 N1          18.3710    24.8880    47.6600 ns         1 4VH      -0.577900
     22 C14         18.1150    26.1180    48.3640 c3         1 4VH       0.093000
     23 C15         18.1690    25.9470    49.8820 c3         1 4VH       0.015300
     24 N2          17.3750    24.8150    50.3070 na         1 4VH       0.114400
     25 C16         16.0380    24.6780    50.2820 cc         1 4VH      -0.248600
     26 C17         15.8250    23.3770    50.6570 cd         1 4VH       0.258600
     27 N3          17.0330    22.8110    50.8750 nd         1 4VH      -0.368000
     28 N4          17.9560    23.6810    50.6530 nc         1 4VH      -0.179800
     29 C18         14.5440    22.6400    50.8360 c3         1 4VH      -0.094700
     30 C19         14.5760    21.2450    50.1810 c3         1 4VH       0.045700
     31 N5          15.0850    21.2090    48.8310 ns         1 4VH      -0.557900
     32 C20         13.2140    20.5410    50.2920 c          1 4VH       0.647100
     33 N6          12.8380    20.2620    51.5480 ns         1 4VH      -0.566900
     34 O7          12.5440    20.2880    49.3050 o          1 4VH      -0.585100
     35 C21         11.6080    19.5870    51.9000 c3         1 4VH       0.097000
     36 C22         11.8130    18.1280    52.2590 c3         1 4VH       0.116400
     37 O8          12.3050    17.4380    51.1370 oh         1 4VH      -0.583800
     38 C23         14.6340    21.7870    47.6950 c          1 4VH       0.645100
     39 O9          15.0700    21.4610    46.6050 o          1 4VH      -0.576100
     40 C24         13.6360    22.9350    47.8090 c3         1 4VH       0.066400
     41 O10         13.2840    23.4350    46.5510 os         1 4VH      -0.308900
     42 C25         12.4070    22.7590    45.7740 ca         1 4VH       0.138100
     43 C26         12.1380    23.3330    44.5310 ca         1 4VH      -0.178500
     44 C27         11.2360    22.7340    43.6690 ca         1 4VH      -0.096000
     45 C28         10.5880    21.5580    44.0290 ca         1 4VH      -0.165000
     46 C29         10.8590    20.9930    45.2650 ca         1 4VH      -0.096000
     47 C30         11.7650    21.5800    46.1420 ca         1 4VH      -0.178500
     48 H1          24.0970    19.1150    44.6100 h1         1 4VH       0.051700
     49 H2          24.9540    17.1240    43.6330 h1         1 4VH       0.049700
     50 H3          23.7520    16.9470    45.6890 h1         1 4VH       0.049700
     51 H4          21.2150    16.5320    44.0560 h1         1 4VH       0.073700
     52 H5          22.0900    18.8570    45.8470 h2         1 4VH       0.068700
     53 H6          23.5840    19.2980    41.6150 h1         1 4VH       0.039700
     54 H7          25.1800    19.2510    42.3670 h1         1 4VH       0.039700
     55 H8          23.4270    15.8400    42.3590 ho         1 4VH       0.423000
     56 H9          22.9710    14.7340    45.3430 ho         1 4VH       0.430000
     57 H10         24.2650    21.4290    42.0440 ho         1 4VH       0.409000
     58 H11         20.3460    16.3380    46.1250 ho         1 4VH       0.426000
     59 H12         21.7150    21.2020    44.9250 ha         1 4VH       0.155000
     60 H13         21.5690    23.3690    46.0370 ha         1 4VH       0.143500
     61 H14         17.7850    22.2580    47.7240 ha         1 4VH       0.143500
     62 H15         17.9600    20.0650    46.6800 ha         1 4VH       0.155000
     63 H16         17.5810    24.4110    47.2570 hn         1 4VH       0.330500
     64 H17         18.8320    26.8880    48.0770 h1         1 4VH       0.063700
     65 H18         17.1290    26.4690    48.0640 h1         1 4VH       0.063700
     66 H19         19.1860    25.7670    50.2240 h1         1 4VH       0.088200
     67 H20         17.8020    26.8490    50.3710 h1         1 4VH       0.088200
     68 H21         15.3670    25.4790    50.0170 h4         1 4VH       0.186000
     69 H22         13.7140    23.2430    50.4670 hc         1 4VH       0.057700
     70 H23         14.3510    22.5030    51.9020 hc         1 4VH       0.057700
     71 H24         15.2910    20.6550    50.7580 h1         1 4VH       0.083700
     72 H25         15.7620    20.4800    48.6580 hn         1 4VH       0.319500
     73 H26         13.4910    20.4330    52.2970 hn         1 4VH       0.310500
     74 H27         10.9090    19.6820    51.0710 h1         1 4VH       0.067200
     75 H28         11.1640    20.0940    52.7580 h1         1 4VH       0.067200
     76 H29         10.8490    17.7290    52.6000 h1         1 4VH       0.021200
     77 H30         12.5020    18.0640    53.1110 h1         1 4VH       0.021200
     78 H31         12.5490    16.5490    51.4110 ho         1 4VH       0.405000
     79 H32         12.7620    22.6550    48.4020 h1         1 4VH       0.069700
     80 H33         14.1260    23.7650    48.3220 h1         1 4VH       0.069700
     81 H34         12.6410    24.2500    44.2490 ha         1 4VH       0.148000
     82 H35         11.0390    23.1910    42.7070 ha         1 4VH       0.129000
     83 H36          9.8830    21.0900    43.3540 ha         1 4VH       0.129000
     84 H37         10.3650    20.0770    45.5620 ha         1 4VH       0.129000
     85 H38         11.9530    21.1060    47.0960 ha         1 4VH       0.148000
@<TRIPOS>BOND
     1     1     2 1   
     2     1     6 1   
     3     2     3 1   
     4     2     7 1   
     5     2    48 1   
     6     3     4 1   
     7     3     8 1   
     8     3    49 1   
     9     4     5 1   
    10     4     9 1   
    11     4    50 1   
    12     5     6 1   
    13     5    12 1   
    14     5    51 1   
    15     6    11 1   
    16     6    52 1   
    17     7    10 1   
    18     7    53 1   
    19     7    54 1   
    20     8    55 1   
    21     9    56 1   
    22    10    57 1   
    23    11    13 1   
    24    12    58 1   
    25    13    14 ar  
    26    13    18 ar  
    27    14    15 ar  
    28    14    59 1   
    29    15    16 ar  
    30    15    60 1   
    31    16    17 ar  
    32    16    19 1   
    33    17    18 ar  
    34    17    61 1   
    35    18    62 1   
    36    19    20 2   
    37    19    21 1   
    38    21    22 1   
    39    21    63 1   
    40    22    23 1   
    41    22    64 1   
    42    22    65 1   
    43    23    24 1   
    44    23    66 1   
    45    23    67 1   
    46    24    25 1   
    47    24    28 1   
    48    25    26 2   
    49    25    68 1   
    50    26    27 1   
    51    26    29 1   
    52    27    28 2   
    53    29    30 1   
    54    29    69 1   
    55    29    70 1   
    56    30    31 1   
    57    30    32 1   
    58    30    71 1   
    59    31    38 1   
    60    31    72 1   
    61    32    33 1   
    62    32    34 2   
    63    33    35 1   
    64    33    73 1   
    65    35    36 1   
    66    35    74 1   
    67    35    75 1   
    68    36    37 1   
    69    36    76 1   
    70    36    77 1   
    71    37    78 1   
    72    38    39 2   
    73    38    40 1   
    74    40    41 1   
    75    40    79 1   
    76    40    80 1   
    77    41    42 1   
    78    42    43 ar  
    79    42    47 ar  
    80    43    44 ar  
    81    43    81 1   
    82    44    45 ar  
    83    44    82 1   
    84    45    46 ar  
    85    45    83 1   
    86    46    47 ar  
    87    46    84 1   
    88    47    85 1   
@<TRIPOS>SUBSTRUCTURE
     1 4VH         1 TEMP              0 ****  ****    0 ROOT
