@<TRIPOS>MOLECULE
4VI
   21    20     1     0     0
SMALL
bcc


@<TRIPOS>ATOM
      1 CZ          28.2340    26.6160    44.4300 c2         1 4VI       0.819100
      2 CD          26.1700    27.9450    44.1800 c2         1 4VI       0.026000
      3 CG          25.0530    28.2630    43.5220 c2         1 4VI      -0.219200
      4 CB          24.0790    29.2810    44.0200 c3         1 4VI      -0.128500
      5 CA          24.0060    30.5410    43.1820 ce         1 4VI       0.335300
      6 C           22.8530    31.5110    43.5040 c          1 4VI       0.840300
      7 NH1         28.7560    25.4850    44.1390 n2         1 4VI      -0.919100
      8 NE          27.0730    26.9800    43.7840 nu         1 4VI      -0.740000
      9 N           24.8450    30.8550    42.2850 n2         1 4VI      -0.751100
     10 NH2         28.6820    27.5140    45.3700 nv         1 4VI      -0.954800
     11 OXT         22.3310    31.3500    44.6240 o          1 4VI      -0.811300
     12 O           22.5590    32.3520    42.6410 o          1 4VI      -0.811300
     13 HD2         26.4090    28.4470    45.1110 h4         1 4VI       0.139000
     14 HG2         24.8160    27.7550    42.5900 ha         1 4VI       0.114000
     15 HB2         24.3250    29.5730    45.0460 hc         1 4VI       0.066200
     16 HB3         23.0760    28.8490    44.0810 hc         1 4VI       0.066200
     17 HH11        29.6430    25.3640    44.6140 hn         1 4VI       0.371400
     18 H           25.5650    30.1340    42.2140 hn         1 4VI       0.313400
     19 HH21        29.5910    27.3040    45.7520 hn         1 4VI       0.399300
     20 HH22        28.5880    28.4940    45.1520 hn         1 4VI       0.399300
     21 H1          26.7980    26.3560    43.0410 hn         1 4VI       0.444800
@<TRIPOS>BOND
     1     1     7 2   
     2     1     8 1   
     3     1    10 1   
     4     2     3 2   
     5     2     8 1   
     6     2    13 1   
     7     3     4 1   
     8     3    14 1   
     9     4     5 1   
    10     4    15 1   
    11     4    16 1   
    12     5     6 1   
    13     5     9 2   
    14     6    11 1   
    15     6    12 1   
    16     7    17 1   
    17     8    21 1   
    18     9    18 1   
    19    10    19 1   
    20    10    20 1   
@<TRIPOS>SUBSTRUCTURE
     1 4VI         1 TEMP              0 ****  ****    0 ROOT
