@<TRIPOS>MOLECULE
4VI
   21    20     1     0     0
SMALL
No Charge or Current Charge


@<TRIPOS>ATOM
      1 CZ          28.1530    26.5340    44.6990 c2         1 4VI       0.819100
      2 CD          26.1430    27.9320    44.4070 c2         1 4VI      -0.024000
      3 CG          25.1320    28.2760    43.6030 c2         1 4VI      -0.269200
      4 CB          24.0100    29.2410    43.9710 c3         1 4VI      -0.128500
      5 CA          24.0240    30.5760    43.2190 ce         1 4VI       0.335300
      6 C           22.8370    31.5530    43.4530 c          1 4VI       0.629700
      7 NH1         28.6350    25.4430    44.3560 n2         1 4VI      -0.919100
      8 NE          27.1310    27.0260    44.0030 nu         1 4VI      -0.795200
      9 N           25.0060    30.8680    42.4040 n2         1 4VI      -0.751100
     10 NH2         28.8640    27.5480    45.1160 nv         1 4VI      -1.065200
     11 OXT         21.9430    31.2320    44.2300 o          1 4VI      -0.706000
     12 O           22.8090    32.6320    42.8630 o          1 4VI      -0.706000
     13 HD2         26.2450    28.3320    45.4230 h4         1 4VI       0.189000
     14 HG2         25.0520    27.8530    42.5990 ha         1 4VI       0.164000
     15 HB2         24.0460    29.4500    45.0470 hc         1 4VI       0.066200
     16 HB3         23.0450    28.7450    43.8050 hc         1 4VI       0.066200
     17 HH11        29.5480    25.3600    44.8150 hn         1 4VI       0.371400
     18 H           25.6880    30.0980    42.4280 hn         1 4VI       0.313400
     19 HH21        29.8240    27.4780    44.8130 hn         1 4VI       0.454500
     20 HH22        28.4110    28.3890    44.7930 hn         1 4VI       0.454500
     21 H1          26.9050    26.4020    43.2360 hn         1 4VI       0.500000
@<TRIPOS>BOND
     1     1     7 2   
     2     1     8 1   
     3     1    10 1   
     4     2     3 2   
     5     2     8 1   
     6     2    13 1   
     7     3     4 1   
     8     3    14 1   
     9     4     5 1   
    10     4    15 1   
    11     4    16 1   
    12     5     6 1   
    13     5     9 2   
    14     6    11 1   
    15     6    12 1   
    16     7    17 1   
    17     8    21 1   
    18     9    18 1   
    19    10    19 1   
    20    10    20 1   
@<TRIPOS>SUBSTRUCTURE
     1 4VI         1 TEMP              0 ****  ****    0 ROOT
