@<TRIPOS>MOLECULE
4VK
   44    46     1     0     0
SMALL
No Charge or Current Charge


@<TRIPOS>ATOM
      1 C1          -5.6070     1.6220     1.7050 ca         1 4VK      -0.129500
      2 C2          -5.1450     1.3050     0.4150 ca         1 4VK      -0.017500
      3 C3          -4.7130    -0.0060     0.1250 ca         1 4VK      -0.310500
      4 C7          -0.3480     0.5490    -0.5400 ca         1 4VK      -0.101300
      5 C8           0.3950     1.3880    -1.3910 ca         1 4VK      -0.091000
      6 C9           1.7970     1.2980    -1.4290 ca         1 4VK      -0.104500
      7 C10          2.4960     0.3680    -0.6180 cp         1 4VK      -0.020000
      8 C11          1.7310    -0.4690     0.2320 ca         1 4VK      -0.104500
      9 C12          0.3290    -0.3810     0.2700 ca         1 4VK      -0.091000
     10 C13          3.9910     0.2740    -0.6600 cp         1 4VK      -0.042000
     11 C14          4.7050     0.4770    -1.8680 ca         1 4VK      -0.091000
     12 C15          6.1060     0.3880    -1.9050 ca         1 4VK      -0.116000
     13 C16          6.8250     0.0950    -0.7360 ca         1 4VK      -0.082000
     14 S           -4.1050    -0.4250    -1.5190 sy         1 4VK       1.145600
     15 O           -4.3500     0.6780    -2.4500 o          1 4VK      -0.532000
     16 C4          -4.7450    -0.9930     1.1320 ca         1 4VK      -0.017500
     17 C5          -5.2070    -0.6680     2.4200 ca         1 4VK      -0.129500
     18 C           -5.6390     0.6380     2.7070 ca         1 4VK      -0.056000
     19 N           -2.4580    -0.4510    -1.2730 n7         1 4VK      -0.862300
     20 C6          -1.8660     0.6430    -0.4920 c3         1 4VK       0.248100
     21 C18          4.7390    -0.0220     0.5090 ca         1 4VK      -0.077000
     22 C17          6.1450    -0.1130     0.4790 ca         1 4VK      -0.089300
     23 O2           7.2430     0.7720     2.4530 oh         1 4VK      -0.653000
     24 H1          -5.9400     2.6340     1.9280 ha         1 4VK       0.120000
     25 H2          -5.1250     2.0810    -0.3500 ha         1 4VK       0.135000
     26 H3          -0.1120     2.1150    -2.0230 ha         1 4VK       0.119000
     27 H4           2.3480     1.9680    -2.0850 ha         1 4VK       0.117500
     28 H5           2.2270    -1.2070     0.8570 ha         1 4VK       0.117500
     29 H6          -0.2340    -1.0420     0.9270 ha         1 4VK       0.119000
     30 H7           4.1670     0.6920    -2.7880 ha         1 4VK       0.113000
     31 H8           6.6350     0.5450    -2.8430 ha         1 4VK       0.115000
     32 H9           7.9100     0.0290    -0.7720 ha         1 4VK       0.115000
     33 H10          6.3190    -1.0950     2.3850 h1         1 4VK       0.024200
     34 H11          7.8390    -0.9760     1.4870 h1         1 4VK       0.024200
     35 H12         -4.4070    -2.0070     0.9230 ha         1 4VK       0.135000
     36 H13         -5.2300    -1.4300     3.1950 ha         1 4VK       0.120000
     37 H14         -5.9960     0.8860     3.7040 ha         1 4VK       0.118000
     38 H15         -2.1240    -0.3820    -2.2300 hn         1 4VK       0.483000
     39 H16         -2.1860     0.5960     0.5580 h1         1 4VK       0.058200
     40 H17         -2.1790     1.6210    -0.8840 h1         1 4VK       0.058200
     41 H18          4.2230    -0.1670     1.4550 ha         1 4VK       0.116000
     42 H19          7.7420     0.5040     3.2560 ho         1 4VK       0.441000
     43 C19          6.9220    -0.4330     1.7490 c3         1 4VK       0.207900
     44 O1          -4.4690    -1.8120    -1.8220 o          1 4VK      -0.532000
@<TRIPOS>BOND
     1     1     2 ar  
     2     1    18 ar  
     3     1    24 1   
     4     2     3 ar  
     5     2    25 1   
     6     3    14 1   
     7     3    16 ar  
     8     4     5 ar  
     9     4     9 ar  
    10     4    20 1   
    11     5     6 ar  
    12     5    26 1   
    13     6     7 ar  
    14     6    27 1   
    15     7     8 ar  
    16     7    10 1   
    17     8     9 ar  
    18     8    28 1   
    19     9    29 1   
    20    10    11 ar  
    21    10    21 ar  
    22    11    12 ar  
    23    11    30 1   
    24    12    13 ar  
    25    12    31 1   
    26    13    22 ar  
    27    13    32 1   
    28    14    15 2   
    29    14    19 1   
    30    14    44 2   
    31    16    17 ar  
    32    16    35 1   
    33    17    18 ar  
    34    17    36 1   
    35    18    37 1   
    36    19    20 1   
    37    19    38 1   
    38    20    39 1   
    39    20    40 1   
    40    21    22 ar  
    41    21    41 1   
    42    22    43 1   
    43    23    42 1   
    44    23    43 1   
    45    33    43 1   
    46    34    43 1   
@<TRIPOS>SUBSTRUCTURE
     1 4VK         1 TEMP              0 ****  ****    0 ROOT
