@<TRIPOS>MOLECULE
4VK
   44    46     1     0     0
SMALL
bcc


@<TRIPOS>ATOM
      1 C1          -6.0910     1.8880    -0.4660 ca         1 4VK      -0.147500
      2 C2          -5.2970     0.8380    -0.8990 ca         1 4VK      -0.035500
      3 C3          -4.8320    -0.0830     0.0320 ca         1 4VK      -0.310500
      4 C7          -0.1620    -0.0280     0.3890 ca         1 4VK      -0.101300
      5 C8           0.3990     1.2340     0.5300 ca         1 4VK      -0.109000
      6 C9           1.7550     1.4370     0.3190 ca         1 4VK      -0.122500
      7 C10          2.5880     0.3820    -0.0470 cp         1 4VK      -0.020000
      8 C11          2.0170    -0.8860    -0.1920 ca         1 4VK      -0.122500
      9 C12          0.6650    -1.0870     0.0220 ca         1 4VK      -0.109000
     10 C13          4.0310     0.5980    -0.2780 cp         1 4VK      -0.042000
     11 C14          4.4920     1.7780    -0.8610 ca         1 4VK      -0.109000
     12 C15          5.8480     1.9740    -1.0770 ca         1 4VK      -0.134000
     13 C16          6.7630     0.9960    -0.7150 ca         1 4VK      -0.100000
     14 S           -3.7690    -1.3930    -0.5140 sy         1 4VK       1.287200
     15 O           -4.1330    -1.7410    -1.8770 o          1 4VK      -0.602800
     16 C4          -5.1470     0.0270     1.3800 ca         1 4VK      -0.035500
     17 C5          -5.9430     1.0840     1.8000 ca         1 4VK      -0.147500
     18 C           -6.4130     2.0120     0.8800 ca         1 4VK      -0.074000
     19 N           -2.2480    -0.7660    -0.5940 n7         1 4VK      -0.807100
     20 C6          -1.6300    -0.2510     0.6270 c3         1 4VK       0.248100
     21 C18          4.9650    -0.3750     0.0800 ca         1 4VK      -0.095000
     22 C17          6.3250    -0.1920    -0.1370 ca         1 4VK      -0.089300
     23 O2           7.7770    -0.8810     1.5940 oh         1 4VK      -0.590800
     24 H1          -6.4620     2.6090    -1.1820 ha         1 4VK       0.138000
     25 H2          -5.0530     0.7430    -1.9490 ha         1 4VK       0.153000
     26 H3          -0.2250     2.0730     0.8160 ha         1 4VK       0.137000
     27 H4           2.1660     2.4300     0.4580 ha         1 4VK       0.135500
     28 H5           2.6320    -1.7260    -0.4910 ha         1 4VK       0.135500
     29 H6           0.2480    -2.0790    -0.1060 ha         1 4VK       0.137000
     30 H7           3.7890     2.5420    -1.1690 ha         1 4VK       0.131000
     31 H8           6.1910     2.8920    -1.5380 ha         1 4VK       0.133000
     32 H9           7.8200     1.1540    -0.8910 ha         1 4VK       0.133000
     33 H10          6.8340    -2.2180     0.3050 h1         1 4VK       0.024200
     34 H11          8.1390    -1.2790    -0.4170 h1         1 4VK       0.024200
     35 H12         -4.7890    -0.6980     2.0980 ha         1 4VK       0.153000
     36 H13         -6.1980     1.1780     2.8460 ha         1 4VK       0.138000
     37 H14         -7.0330     2.8340     1.2120 ha         1 4VK       0.136000
     38 H15         -2.1320    -0.1550    -1.3960 hn         1 4VK       0.427800
     39 H16         -1.7650    -0.9910     1.4160 h1         1 4VK       0.058200
     40 H17         -2.1000     0.6790     0.9600 h1         1 4VK       0.058200
     41 H18          4.6290    -1.2910     0.5520 ha         1 4VK       0.134000
     42 H19          8.4390    -1.5300     1.8530 ho         1 4VK       0.402000
     43 C19          7.3140    -1.2320     0.3050 c3         1 4VK       0.184700
     44 O1          -3.7540    -2.4160     0.5180 o          1 4VK      -0.602800
@<TRIPOS>BOND
     1     1     2 ar  
     2     1    18 ar  
     3     1    24 1   
     4     2     3 ar  
     5     2    25 1   
     6     3    14 1   
     7     3    16 ar  
     8     4     5 ar  
     9     4     9 ar  
    10     4    20 1   
    11     5     6 ar  
    12     5    26 1   
    13     6     7 ar  
    14     6    27 1   
    15     7     8 ar  
    16     7    10 1   
    17     8     9 ar  
    18     8    28 1   
    19     9    29 1   
    20    10    11 ar  
    21    10    21 ar  
    22    11    12 ar  
    23    11    30 1   
    24    12    13 ar  
    25    12    31 1   
    26    13    22 ar  
    27    13    32 1   
    28    14    15 2   
    29    14    19 1   
    30    14    44 2   
    31    16    17 ar  
    32    16    35 1   
    33    17    18 ar  
    34    17    36 1   
    35    18    37 1   
    36    19    20 1   
    37    19    38 1   
    38    20    39 1   
    39    20    40 1   
    40    21    22 ar  
    41    21    41 1   
    42    22    43 1   
    43    23    42 1   
    44    23    43 1   
    45    33    43 1   
    46    34    43 1   
@<TRIPOS>SUBSTRUCTURE
     1 4VK         1 TEMP              0 ****  ****    0 ROOT
