@<TRIPOS>MOLECULE
4VL
   42    44     1     0     0
SMALL
No Charge or Current Charge


@<TRIPOS>ATOM
      1 C1           5.4850     1.2560    -0.9070 ca         1 4VL      -0.160000
      2 C2           4.0820     1.3000    -0.9170 ca         1 4VL       0.170000
      3 C3           3.3140     0.3650    -0.1700 cp         1 4VL      -0.025000
      4 C7           1.8150     0.3820    -0.1590 cp         1 4VL      -0.200000
      5 C8           1.0820     1.5830    -0.0500 ca         1 4VL      -0.010000
      6 C9          -0.3180     1.5230    -0.0390 ca         1 4VL      -0.248000
      7 C10         -0.9570     0.2750    -0.1360 ca         1 4VL       0.645900
      8 C11          1.0700    -0.8200    -0.2450 ca         1 4VL       0.413900
      9 C12         -3.2200     1.1990     0.4550 c6         1 4VL       0.206800
     10 C13         -4.5620     0.6290     0.9810 c6         1 4VL      -0.063400
     11 C14         -5.3120    -0.1760    -0.1160 c6         1 4VL      -0.189700
     12 C15         -4.3700    -1.2750    -0.6770 c6         1 4VL      -0.063400
     13 C16         -3.0320    -0.6760    -1.1810 c6         1 4VL       0.206800
     14 F            3.4780     2.2370    -1.6830 f          1 4VL      -0.179000
     15 C4           4.0150    -0.6150     0.5780 ca         1 4VL      -0.081000
     16 C5           5.4230    -0.6620     0.5930 ca         1 4VL      -0.106300
     17 C6           6.1460    -1.7220     1.4140 c3         1 4VL       0.211900
     18 O            6.3060    -2.9180     0.6450 oh         1 4VL      -0.656000
     19 C            6.1560     0.2790    -0.1540 ca         1 4VL      -0.073000
     20 N           -0.2780    -0.8790    -0.2370 nb         1 4VL      -0.765000
     21 N1          -2.3560     0.1330    -0.1240 nh         1 4VL      -0.749300
     22 H1           6.0520     1.9770    -1.4900 ha         1 4VL       0.124000
     23 H2           1.5870     2.5430     0.0370 ha         1 4VL       0.109000
     24 H3          -0.8930     2.4390     0.0340 ha         1 4VL       0.123000
     25 H4           1.5830    -1.7770    -0.3340 h4         1 4VL       0.005100
     26 H5          -3.4240     1.9680    -0.3050 h1         1 4VL       0.034200
     27 H6          -2.7080     1.6910     1.2950 h1         1 4VL       0.034200
     28 H7          -4.3630    -0.0150     1.8490 hc         1 4VL       0.053200
     29 H8          -5.1930     1.4520     1.3420 hc         1 4VL       0.053200
     30 H9          -5.5440     0.5170    -0.9380 hc         1 4VL       0.025700
     31 H10         -4.1580    -2.0230     0.0990 hc         1 4VL       0.053200
     32 H11         -4.8640    -1.8100    -1.4990 hc         1 4VL       0.053200
     33 H12         -2.3940    -1.5040    -1.5230 h1         1 4VL       0.034200
     34 H13         -3.2300    -0.0410    -2.0580 h1         1 4VL       0.034200
     35 H14          3.4570    -1.3420     1.1620 ha         1 4VL       0.119000
     36 H15          7.1260    -1.3350     1.7250 h1         1 4VL       0.024700
     37 H16          5.5700    -1.9290     2.3250 h1         1 4VL       0.024700
     38 H17          6.7760    -3.5610     1.2200 ho         1 4VL       0.438000
     39 H18          7.2440     0.2510    -0.1530 ha         1 4VL       0.117000
     40 C17         -6.6590    -0.7500     0.3870 c          1 4VL       0.721000
     41 O2          -6.6440    -1.5510     1.3100 o          1 4VL      -0.734000
     42 O1          -7.6820    -0.3730    -0.1640 o          1 4VL      -0.734000
@<TRIPOS>BOND
     1     1     2 ar  
     2     1    19 ar  
     3     1    22 1   
     4     2     3 ar  
     5     2    14 1   
     6     3     4 1   
     7     3    15 ar  
     8     4     5 ar  
     9     4     8 ar  
    10     5     6 ar  
    11     5    23 1   
    12     6     7 ar  
    13     6    24 1   
    14     7    20 ar  
    15     7    21 1   
    16     8    20 ar  
    17     8    25 1   
    18     9    10 1   
    19     9    21 1   
    20     9    26 1   
    21     9    27 1   
    22    10    11 1   
    23    10    28 1   
    24    10    29 1   
    25    11    12 1   
    26    11    30 1   
    27    11    40 1   
    28    12    13 1   
    29    12    31 1   
    30    12    32 1   
    31    13    21 1   
    32    13    33 1   
    33    13    34 1   
    34    15    16 ar  
    35    15    35 1   
    36    16    17 1   
    37    16    19 ar  
    38    17    18 1   
    39    17    36 1   
    40    17    37 1   
    41    18    38 1   
    42    19    39 1   
    43    40    41 1   
    44    40    42 1   
@<TRIPOS>SUBSTRUCTURE
     1 4VL         1 TEMP              0 ****  ****    0 ROOT
