@<TRIPOS>MOLECULE
4VL
   42    44     1     0     0
SMALL
abcg2


@<TRIPOS>ATOM
      1 C1           5.4180     1.3420    -0.5740 ca         1 4VL      -0.160000
      2 C2           4.0370     1.3970    -0.5630 ca         1 4VL       0.170000
      3 C3           3.2480     0.3770    -0.0490 cp         1 4VL      -0.025000
      4 C7           1.7780     0.4240    -0.0780 cp         1 4VL      -0.200000
      5 C8           1.0220     1.5320     0.3210 ca         1 4VL      -0.010000
      6 C9          -0.3520     1.4970     0.2830 ca         1 4VL      -0.248000
      7 C10         -1.0020     0.3250    -0.1660 ca         1 4VL       0.645900
      8 C11          1.0440    -0.6740    -0.5060 ca         1 4VL       0.413900
      9 C12         -3.2500     1.3260    -0.0130 c6         1 4VL       0.206800
     10 C13         -4.5580     0.9080     0.6480 c6         1 4VL      -0.063400
     11 C14         -5.2450    -0.2170    -0.1130 c6         1 4VL      -0.189700
     12 C15         -4.2600    -1.3680    -0.2710 c6         1 4VL      -0.063400
     13 C16         -2.9660    -0.9140    -0.9260 c6         1 4VL       0.206800
     14 F            3.4390     2.4750    -1.1000 f          1 4VL      -0.179000
     15 C4           3.9220    -0.7350     0.4630 ca         1 4VL      -0.081000
     16 C5           5.3070    -0.8280     0.4700 ca         1 4VL      -0.106300
     17 C6           5.9880    -2.0290     1.0650 c3         1 4VL       0.211900
     18 O            6.9800    -2.4880     0.1750 oh         1 4VL      -0.656000
     19 C            6.0520     0.2250    -0.0550 ca         1 4VL      -0.073000
     20 N           -0.2760    -0.7280    -0.5550 nb         1 4VL      -0.765000
     21 N1          -2.3590     0.1960    -0.2070 nh         1 4VL      -0.749300
     22 H1           5.9870     2.1620    -0.9920 ha         1 4VL       0.124000
     23 H2           1.5060     2.4290     0.6860 ha         1 4VL       0.109000
     24 H3          -0.8980     2.3710     0.6010 ha         1 4VL       0.123000
     25 H4           1.5620    -1.5640    -0.8510 h4         1 4VL       0.005100
     26 H5          -3.4660     1.7980    -0.9830 h1         1 4VL       0.034200
     27 H6          -2.7750     2.0800     0.6090 h1         1 4VL       0.034200
     28 H7          -4.3510     0.5880     1.6740 hc         1 4VL       0.053200
     29 H8          -5.1970     1.7890     0.7130 hc         1 4VL       0.053200
     30 H9          -5.4770     0.1550    -1.1230 hc         1 4VL       0.025700
     31 H10         -4.0340    -1.8030     0.7090 hc         1 4VL       0.053200
     32 H11         -4.6900    -2.1630    -0.8800 hc         1 4VL       0.053200
     33 H12         -2.2580    -1.7340    -0.9700 h1         1 4VL       0.034200
     34 H13         -3.1710    -0.6070    -1.9620 h1         1 4VL       0.034200
     35 H14          3.3370    -1.5470     0.8790 ha         1 4VL       0.119000
     36 H15          6.4250    -1.7490     2.0320 h1         1 4VL       0.024700
     37 H16          5.2370    -2.8020     1.2730 h1         1 4VL       0.024700
     38 H17          7.5410    -3.1090     0.6490 ho         1 4VL       0.438000
     39 H18          7.1340     0.1830    -0.0610 ha         1 4VL       0.117000
     40 C17         -6.5880    -0.6530     0.5050 c          1 4VL       0.721000
     41 O2          -7.1980     0.1810     1.2060 o          1 4VL      -0.734000
     42 O1          -6.9890    -1.8040     0.2290 o          1 4VL      -0.734000
@<TRIPOS>BOND
     1     1     2 ar  
     2     1    19 ar  
     3     1    22 1   
     4     2     3 ar  
     5     2    14 1   
     6     3     4 1   
     7     3    15 ar  
     8     4     5 ar  
     9     4     8 ar  
    10     5     6 ar  
    11     5    23 1   
    12     6     7 ar  
    13     6    24 1   
    14     7    20 ar  
    15     7    21 1   
    16     8    20 ar  
    17     8    25 1   
    18     9    10 1   
    19     9    21 1   
    20     9    26 1   
    21     9    27 1   
    22    10    11 1   
    23    10    28 1   
    24    10    29 1   
    25    11    12 1   
    26    11    30 1   
    27    11    40 1   
    28    12    13 1   
    29    12    31 1   
    30    12    32 1   
    31    13    21 1   
    32    13    33 1   
    33    13    34 1   
    34    15    16 ar  
    35    15    35 1   
    36    16    17 1   
    37    16    19 ar  
    38    17    18 1   
    39    17    36 1   
    40    17    37 1   
    41    18    38 1   
    42    19    39 1   
    43    40    41 1   
    44    40    42 1   
@<TRIPOS>SUBSTRUCTURE
     1 4VL         1 TEMP              0 ****  ****    0 ROOT
