@<TRIPOS>MOLECULE
4VM
   62    66     1     0     0
SMALL
No Charge or Current Charge


@<TRIPOS>ATOM
      1 C1          -0.8610     2.0160    -1.3190 ca         1 4VM      -0.059000
      2 C2          -2.1110     1.5250    -0.9020 ca         1 4VM      -0.086000
      3 C3          -2.6020     0.3170    -1.4290 ca         1 4VM      -0.085000
      4 C7          -2.8660     2.2580     0.0490 ca         1 4VM       0.272000
      5 C8          -1.2200     3.8990     0.1550 ca         1 4VM       0.353900
      6 C10         -3.5400    -3.9040    -1.5030 c          1 4VM       0.602100
      7 C11         -2.3550    -4.8240    -1.1020 c6         1 4VM      -0.142700
      8 C12         -1.9490    -4.7180     0.3930 c6         1 4VM      -0.075400
      9 C13         -1.3700    -3.3450     0.8190 c6         1 4VM       0.216800
     10 C14         -0.4120    -3.1380    -1.5850 c6         1 4VM       0.216800
     11 C15         -1.0470    -4.5220    -1.8810 c6         1 4VM      -0.075400
     12 C16          0.3450    -1.5810     0.2690 ca         1 4VM       0.631900
     13 C19          1.9550     0.5740     0.9960 cp         1 4VM      -0.153000
     14 C20          2.1460    -0.2010    -0.1760 ca         1 4VM       0.406900
     15 C21          2.9050     1.6760     1.3670 cp         1 4VM      -0.054000
     16 C22          4.3030     1.4890     1.1920 ca         1 4VM      -0.074000
     17 C24          4.7720     3.6960     2.1010 ca         1 4VM      -0.060000
     18 C26          2.4710     2.9120     1.9210 ca         1 4VM       0.178000
     19 C25          3.3930     3.9090     2.2760 ca         1 4VM      -0.156000
     20 C23          5.2350     2.4820     1.5580 ca         1 4VM      -0.103300
     21 O1           7.1470     2.5550     0.0570 oh         1 4VM      -0.654000
     22 C18          0.8590     0.2220     1.8160 ca         1 4VM      -0.012000
     23 C17          0.0530    -0.8620     1.4450 ca         1 4VM      -0.238000
     24 N3           1.3690    -1.2460    -0.5350 nb         1 4VM      -0.754000
     25 N2          -0.3980    -2.7170    -0.1380 nh         1 4VM      -0.778300
     26 O           -4.5710    -4.3530    -1.9820 o          1 4VM      -0.600100
     27 N1          -3.3750    -2.5610    -1.2800 ns         1 4VM      -0.508900
     28 C4          -3.8480    -0.1890    -1.0110 ca         1 4VM      -0.109300
     29 C5          -4.6000     0.5300    -0.0620 ca         1 4VM      -0.089000
     30 C6          -4.1100     1.7420     0.4570 ca         1 4VM      -0.084000
     31 N           -2.4220     3.4290     0.5640 nb         1 4VM      -0.659000
     32 C           -0.4130     3.2290    -0.7780 ca         1 4VM      -0.168000
     33 H1          -0.2550     1.4750    -2.0440 ha         1 4VM       0.118000
     34 H2          -2.0130    -0.2310    -2.1610 ha         1 4VM       0.112000
     35 H3          -0.8960     4.8440     0.5900 h4         1 4VM       0.019100
     36 H4          -4.4950    -1.4390    -2.6470 h1         1 4VM       0.066200
     37 H5          -5.3130    -1.7850    -1.1010 h1         1 4VM       0.066200
     38 H6          -2.6660    -5.8560    -1.3160 hc         1 4VM       0.066700
     39 H7          -2.8120    -4.9570     1.0310 hc         1 4VM       0.054950
     40 H8          -1.2000    -5.4930     0.6150 hc         1 4VM       0.054950
     41 H9          -2.2060    -2.6530     1.0010 h1         1 4VM       0.056950
     42 H10         -0.8790    -3.4880     1.7940 h1         1 4VM       0.056950
     43 H11          0.6140    -3.1780    -1.9800 h1         1 4VM       0.056950
     44 H12         -0.9340    -2.3760    -2.1820 h1         1 4VM       0.056950
     45 H13         -0.3060    -5.2990    -1.6450 hc         1 4VM       0.054950
     46 H14         -1.2290    -4.6100    -2.9600 hc         1 4VM       0.054950
     47 H15          2.9710     0.0250    -0.8520 h4         1 4VM       0.018100
     48 H16          4.6710     0.5500     0.7850 ha         1 4VM       0.117000
     49 H17          5.4770     4.4730     2.3900 ha         1 4VM       0.125000
     50 H18          7.2890     2.8270     2.1190 h1         1 4VM       0.026200
     51 H19          6.9460     1.1720     1.6030 h1         1 4VM       0.026200
     52 H20          3.0350     4.8470     2.6940 ha         1 4VM       0.132000
     53 H21          8.1120     2.3730     0.0100 ho         1 4VM       0.443000
     54 H22          0.6530     0.7600     2.7400 ha         1 4VM       0.120000
     55 H23         -0.7820    -1.1360     2.0810 ha         1 4VM       0.120000
     56 H24         -2.4840    -2.2820    -0.8840 hn         1 4VM       0.311500
     57 H25         -5.5620     0.1540     0.2800 ha         1 4VM       0.131000
     58 H26         -4.6980     2.2910     1.1880 ha         1 4VM       0.134000
     59 H27          0.5450     3.6490    -1.0730 ha         1 4VM       0.124000
     60 C9          -4.3510    -1.5160    -1.5610 c3         1 4VM       0.144300
     61 C27          6.7310     2.2280     1.3880 c3         1 4VM       0.211900
     62 F            1.1550     3.1670     2.1030 f          1 4VM      -0.179000
@<TRIPOS>BOND
     1     1     2 ar  
     2     1    32 ar  
     3     1    33 1   
     4     2     3 ar  
     5     2     4 ar  
     6     3    28 ar  
     7     3    34 1   
     8     4    30 ar  
     9     4    31 ar  
    10     5    31 ar  
    11     5    32 ar  
    12     5    35 1   
    13     6     7 1   
    14     6    26 2   
    15     6    27 1   
    16     7     8 1   
    17     7    11 1   
    18     7    38 1   
    19     8     9 1   
    20     8    39 1   
    21     8    40 1   
    22     9    25 1   
    23     9    41 1   
    24     9    42 1   
    25    10    11 1   
    26    10    25 1   
    27    10    43 1   
    28    10    44 1   
    29    11    45 1   
    30    11    46 1   
    31    12    23 ar  
    32    12    24 ar  
    33    12    25 1   
    34    13    14 ar  
    35    13    15 1   
    36    13    22 ar  
    37    14    24 ar  
    38    14    47 1   
    39    15    16 ar  
    40    15    18 ar  
    41    16    20 ar  
    42    16    48 1   
    43    17    19 ar  
    44    17    20 ar  
    45    17    49 1   
    46    18    19 ar  
    47    18    62 1   
    48    19    52 1   
    49    20    61 1   
    50    21    53 1   
    51    21    61 1   
    52    22    23 ar  
    53    22    54 1   
    54    23    55 1   
    55    27    56 1   
    56    27    60 1   
    57    28    29 ar  
    58    28    60 1   
    59    29    30 ar  
    60    29    57 1   
    61    30    58 1   
    62    32    59 1   
    63    36    60 1   
    64    37    60 1   
    65    50    61 1   
    66    51    61 1   
@<TRIPOS>SUBSTRUCTURE
     1 4VM         1 TEMP              0 ****  ****    0 ROOT
