@<TRIPOS>MOLECULE
4VM
   62    66     1     0     0
SMALL
abcg2


@<TRIPOS>ATOM
      1 C1          -9.1940     1.6530     0.4370 ca         1 4VM      -0.059000
      2 C2          -8.1530     0.7870     0.0400 ca         1 4VM      -0.086000
      3 C3          -6.8270     1.2290    -0.1720 ca         1 4VM      -0.085000
      4 C7          -8.4700    -0.5800    -0.1450 ca         1 4VM       0.272000
      5 C8         -10.6570    -0.2340     0.4120 ca         1 4VM       0.353900
      6 C10         -2.6370    -0.7770    -0.2090 c          1 4VM       0.602100
      7 C11         -1.7710    -1.3020     0.9340 c6         1 4VM      -0.142700
      8 C12         -1.0460    -0.2000     1.7090 c6         1 4VM      -0.075400
      9 C13          0.0650     0.4410     0.8910 c6         1 4VM       0.216800
     10 C14          0.4100    -1.6570    -0.3170 c6         1 4VM       0.216800
     11 C15         -0.7280    -2.3060     0.4580 c6         1 4VM      -0.075400
     12 C16          2.3310    -0.2530     0.2410 ca         1 4VM       0.631900
     13 C19          5.0510     0.1910    -0.1150 cp         1 4VM      -0.153000
     14 C20          4.3930    -0.9750    -0.4790 ca         1 4VM       0.406900
     15 C21          6.5020     0.3380    -0.3140 cp         1 4VM      -0.054000
     16 C22          7.3920    -0.6630     0.0830 ca         1 4VM      -0.074000
     17 C24          9.2660     0.5850    -0.7270 ca         1 4VM      -0.060000
     18 C26          7.0550     1.4520    -0.9310 ca         1 4VM       0.178000
     19 C25          8.4120     1.5940    -1.1420 ca         1 4VM      -0.156000
     20 C23          8.7630    -0.5570    -0.1090 ca         1 4VM      -0.103300
     21 O1          10.5910    -1.9710    -0.6580 oh         1 4VM      -0.654000
     22 C18          4.2470     1.1840     0.4520 ca         1 4VM      -0.012000
     23 C17          2.9000     0.9800     0.6330 ca         1 4VM      -0.238000
     24 N3           3.0980    -1.1920    -0.3180 nb         1 4VM      -0.754000
     25 N2           1.0100    -0.5550     0.4240 nh         1 4VM      -0.778300
     26 O           -2.5770    -1.2300    -1.3430 o          1 4VM      -0.600100
     27 N1          -3.4950     0.2030     0.1340 ns         1 4VM      -0.508900
     28 C4          -5.8450     0.3560    -0.5560 ca         1 4VM      -0.109300
     29 C5          -6.1710    -1.0110    -0.7400 ca         1 4VM      -0.089000
     30 C6          -7.4430    -1.4680    -0.5420 ca         1 4VM      -0.084000
     31 N           -9.7190    -1.0670     0.0440 nb         1 4VM      -0.659000
     32 C          -10.4480     1.1440     0.6240 ca         1 4VM      -0.168000
     33 H1          -8.9890     2.7060     0.5880 ha         1 4VM       0.118000
     34 H2          -6.5980     2.2790    -0.0210 ha         1 4VM       0.112000
     35 H3         -11.6490    -0.6500     0.5570 h4         1 4VM       0.019100
     36 H4          -4.3750     1.9060    -0.6560 h1         1 4VM       0.066200
     37 H5          -4.1130     0.5970    -1.7940 h1         1 4VM       0.066200
     38 H6          -2.4580    -1.8080     1.6230 hc         1 4VM       0.066700
     39 H7          -1.7170     0.5850     2.0610 hc         1 4VM       0.054950
     40 H8          -0.6090    -0.6470     2.6060 hc         1 4VM       0.054950
     41 H9          -0.3580     1.0010     0.0450 h1         1 4VM       0.056950
     42 H10          0.5660     1.1650     1.5280 h1         1 4VM       0.056950
     43 H11          1.1770    -2.3970    -0.5190 h1         1 4VM       0.056950
     44 H12          0.0460    -1.2940    -1.2860 h1         1 4VM       0.056950
     45 H13         -0.3170    -2.8070     1.3380 hc         1 4VM       0.054950
     46 H14         -1.1790    -3.0790    -0.1650 hc         1 4VM       0.054950
     47 H15          4.9480    -1.7830    -0.9480 h4         1 4VM       0.018100
     48 H16          6.9930    -1.5450     0.5690 ha         1 4VM       0.117000
     49 H17         10.3310     0.6980    -0.8870 ha         1 4VM       0.125000
     50 H18         10.2230    -1.2780     1.2620 h1         1 4VM       0.026200
     51 H19          9.0990    -2.5050     0.6950 h1         1 4VM       0.026200
     52 H20          8.7940     2.4820    -1.6290 ha         1 4VM       0.132000
     53 H21         11.3090    -2.4800    -0.2700 ho         1 4VM       0.443000
     54 H22          4.6760     2.1240     0.7750 ha         1 4VM       0.120000
     55 H23          2.3120     1.7730     1.0680 ha         1 4VM       0.120000
     56 H24         -3.5530     0.4810     1.1000 hn         1 4VM       0.311500
     57 H25         -5.3960    -1.7020    -1.0520 ha         1 4VM       0.131000
     58 H26         -7.6880    -2.5120    -0.6890 ha         1 4VM       0.134000
     59 H27        -11.2750     1.7720     0.9270 ha         1 4VM       0.124000
     60 C9          -4.4300     0.8230    -0.7770 c3         1 4VM       0.144300
     61 C27          9.6900    -1.6380     0.3740 c3         1 4VM       0.211900
     62 F            6.2370     2.4270    -1.3640 f          1 4VM      -0.179000
@<TRIPOS>BOND
     1     1     2 ar  
     2     1    32 ar  
     3     1    33 1   
     4     2     3 ar  
     5     2     4 ar  
     6     3    28 ar  
     7     3    34 1   
     8     4    30 ar  
     9     4    31 ar  
    10     5    31 ar  
    11     5    32 ar  
    12     5    35 1   
    13     6     7 1   
    14     6    26 2   
    15     6    27 1   
    16     7     8 1   
    17     7    11 1   
    18     7    38 1   
    19     8     9 1   
    20     8    39 1   
    21     8    40 1   
    22     9    25 1   
    23     9    41 1   
    24     9    42 1   
    25    10    11 1   
    26    10    25 1   
    27    10    43 1   
    28    10    44 1   
    29    11    45 1   
    30    11    46 1   
    31    12    23 ar  
    32    12    24 ar  
    33    12    25 1   
    34    13    14 ar  
    35    13    15 1   
    36    13    22 ar  
    37    14    24 ar  
    38    14    47 1   
    39    15    16 ar  
    40    15    18 ar  
    41    16    20 ar  
    42    16    48 1   
    43    17    19 ar  
    44    17    20 ar  
    45    17    49 1   
    46    18    19 ar  
    47    18    62 1   
    48    19    52 1   
    49    20    61 1   
    50    21    53 1   
    51    21    61 1   
    52    22    23 ar  
    53    22    54 1   
    54    23    55 1   
    55    27    56 1   
    56    27    60 1   
    57    28    29 ar  
    58    28    60 1   
    59    29    30 ar  
    60    29    57 1   
    61    30    58 1   
    62    32    59 1   
    63    36    60 1   
    64    37    60 1   
    65    50    61 1   
    66    51    61 1   
@<TRIPOS>SUBSTRUCTURE
     1 4VM         1 TEMP              0 ****  ****    0 ROOT
