@<TRIPOS>MOLECULE
4VN
   42    44     1     0     0
SMALL
No Charge or Current Charge


@<TRIPOS>ATOM
      1 C1           5.3490     0.9950    -1.0370 ca         1 4VN      -0.114000
      2 C2           3.9490     1.0940    -0.9830 ca         1 4VN       0.125000
      3 C3           3.1780     0.0780    -0.3510 cp         1 4VN       0.018000
      4 C7           1.6870     0.1350    -0.2630 cp         1 4VN      -0.199000
      5 C8           1.0110     1.2560     0.2640 ca         1 4VN      -0.011000
      6 C9          -0.3880     1.2320     0.3270 ca         1 4VN      -0.246000
      7 C10         -1.0810     0.0970    -0.1290 ca         1 4VN       0.636900
      8 C11          0.8940    -0.9580    -0.6840 ca         1 4VN       0.409900
      9 C12         -3.2370    -0.4200    -1.3120 c6         1 4VN       0.204800
     10 C13         -4.5760    -1.1130    -0.9510 c6         1 4VN      -0.062400
     11 C14         -5.4480    -0.2250    -0.0220 c6         1 4VN      -0.192700
     12 C15         -4.6180     0.1710     1.2310 c6         1 4VN      -0.062400
     13 C16         -3.2770     0.8430     0.8410 c6         1 4VN       0.204800
     14 Cl           3.1980     2.4860    -1.7660 cl         1 4VN      -0.207000
     15 C4           3.8630    -1.0310     0.2030 ca         1 4VN      -0.097000
     16 C5           5.2670    -1.1310     0.1490 ca         1 4VN      -0.089300
     17 C6           5.9760    -2.3340     0.7580 c3         1 4VN       0.209900
     18 O            6.2760    -2.0880     2.1360 oh         1 4VN      -0.657000
     19 C            6.0080    -0.1090    -0.4710 ca         1 4VN      -0.088000
     20 N           -0.4540    -0.9820    -0.6250 nb         1 4VN      -0.756000
     21 N1          -2.4840    -0.0050    -0.0910 nh         1 4VN      -0.744300
     22 H1           5.9270     1.7760    -1.5260 ha         1 4VN       0.122000
     23 H2           1.5620     2.1230     0.6230 ha         1 4VN       0.110000
     24 H3          -0.9210     2.0920     0.7170 ha         1 4VN       0.123000
     25 H4           1.3660    -1.8510    -1.0930 h4         1 4VN       0.005100
     26 H5          -2.6490    -1.1120    -1.9300 h1         1 4VN       0.031700
     27 H6          -3.4470     0.4650    -1.9310 h1         1 4VN       0.031700
     28 H7          -5.1260    -1.3480    -1.8720 hc         1 4VN       0.053700
     29 H8          -4.3620    -2.0740    -0.4630 hc         1 4VN       0.053700
     30 H9          -5.6860     0.6980    -0.5700 hc         1 4VN       0.024700
     31 H10         -5.1990     0.8530     1.8660 hc         1 4VN       0.053700
     32 H11         -4.4100    -0.7200     1.8390 hc         1 4VN       0.053700
     33 H12         -3.4810     1.8190     0.3750 h1         1 4VN       0.031700
     34 H13         -2.7100     1.0290     1.7640 h1         1 4VN       0.031700
     35 H14          3.2940    -1.8180     0.6920 ha         1 4VN       0.120000
     36 H15          5.3350    -3.2200     0.6600 h1         1 4VN       0.026200
     37 H16          6.9000    -2.5330     0.1970 h1         1 4VN       0.026200
     38 H17          6.7300    -2.8920     2.4730 ho         1 4VN       0.439000
     39 H18          7.0930    -0.1720    -0.5190 ha         1 4VN       0.121000
     40 C17         -6.7930    -0.8950     0.3460 c          1 4VN       0.723000
     41 O2          -6.7710    -1.9480     0.9670 o          1 4VN      -0.733500
     42 O1          -7.8230    -0.3370    -0.0020 o          1 4VN      -0.733500
@<TRIPOS>BOND
     1     1     2 ar  
     2     1    19 ar  
     3     1    22 1   
     4     2     3 ar  
     5     2    14 1   
     6     3     4 1   
     7     3    15 ar  
     8     4     5 ar  
     9     4     8 ar  
    10     5     6 ar  
    11     5    23 1   
    12     6     7 ar  
    13     6    24 1   
    14     7    20 ar  
    15     7    21 1   
    16     8    20 ar  
    17     8    25 1   
    18     9    10 1   
    19     9    21 1   
    20     9    26 1   
    21     9    27 1   
    22    10    11 1   
    23    10    28 1   
    24    10    29 1   
    25    11    12 1   
    26    11    30 1   
    27    11    40 1   
    28    12    13 1   
    29    12    31 1   
    30    12    32 1   
    31    13    21 1   
    32    13    33 1   
    33    13    34 1   
    34    15    16 ar  
    35    15    35 1   
    36    16    17 1   
    37    16    19 ar  
    38    17    18 1   
    39    17    36 1   
    40    17    37 1   
    41    18    38 1   
    42    19    39 1   
    43    40    41 1   
    44    40    42 1   
@<TRIPOS>SUBSTRUCTURE
     1 4VN         1 TEMP              0 ****  ****    0 ROOT
