@<TRIPOS>MOLECULE
4VN
   42    44     1     0     0
SMALL
bcc


@<TRIPOS>ATOM
      1 C1           5.3050     1.1320    -0.5920 ca         1 4VN      -0.132000
      2 C2           3.9210     1.2250    -0.5640 ca         1 4VN       0.033400
      3 C3           3.1260     0.1450    -0.1810 cp         1 4VN       0.018000
      4 C7           1.6550     0.1970    -0.1340 cp         1 4VN      -0.264300
      5 C8           0.9400     1.1350     0.6150 ca         1 4VN      -0.029000
      6 C9          -0.4350     1.1060     0.6440 ca         1 4VN      -0.329300
      7 C10         -1.1200     0.1110    -0.0870 ca         1 4VN       0.702200
      8 C11          0.8890    -0.7290    -0.8290 ca         1 4VN       0.475200
      9 C12         -3.1490    -0.6560    -1.2020 c6         1 4VN       0.204800
     10 C13         -4.4790    -1.2720    -0.8020 c6         1 4VN      -0.062400
     11 C14         -5.3890    -0.2510    -0.1340 c6         1 4VN      -0.192700
     12 C15         -4.6470     0.3600     1.0440 c6         1 4VN      -0.062400
     13 C16         -3.3020     0.9480     0.6400 c6         1 4VN       0.204800
     14 CL           3.1940     2.7200    -1.0630 cl         1 4VN      -0.115400
     15 C4           3.7840    -1.0380     0.1630 ca         1 4VN      -0.115000
     16 C5           5.1660    -1.1620     0.1290 ca         1 4VN      -0.089300
     17 C6           5.8160    -2.4740     0.4680 c3         1 4VN       0.186700
     18 O            6.9980    -2.2370     1.1960 oh         1 4VN      -0.594800
     19 C            5.9250    -0.0570    -0.2460 ca         1 4VN      -0.106000
     20 N           -0.4330    -0.7730    -0.8170 nb         1 4VN      -0.756000
     21 N1          -2.4820    -0.0130    -0.0770 nh         1 4VN      -0.744300
     22 H1           5.8970     1.9850    -0.8930 ha         1 4VN       0.140000
     23 H2           1.4600     1.8940     1.1850 ha         1 4VN       0.128000
     24 H3          -0.9580     1.8590     1.2140 ha         1 4VN       0.141000
     25 H4           1.3790    -1.4760    -1.4460 h4         1 4VN       0.005100
     26 H5          -2.4910    -1.4150    -1.6140 h1         1 4VN       0.031700
     27 H6          -3.3210     0.0880    -1.9940 h1         1 4VN       0.031700
     28 H7          -4.9490    -1.6810    -1.6960 hc         1 4VN       0.053700
     29 H8          -4.3000    -2.1110    -0.1220 hc         1 4VN       0.053700
     30 H9          -5.5700     0.5530    -0.8650 hc         1 4VN       0.024700
     31 H10         -5.2360     1.1530     1.5070 hc         1 4VN       0.053700
     32 H11         -4.4850    -0.4040     1.8120 hc         1 4VN       0.053700
     33 H12         -3.4580     1.8500     0.0310 h1         1 4VN       0.031700
     34 H13         -2.7890     1.2600     1.5480 h1         1 4VN       0.031700
     35 H14          3.1850    -1.8810     0.4860 ha         1 4VN       0.138000
     36 H15          5.1060    -3.0920     1.0310 h1         1 4VN       0.026200
     37 H16          6.0260    -3.0120    -0.4650 h1         1 4VN       0.026200
     38 H17          7.4800    -3.0660     1.2590 ho         1 4VN       0.400000
     39 H18          7.0050    -0.1140    -0.2770 ha         1 4VN       0.139000
     40 C17         -6.7720    -0.8250     0.2380 c          1 4VN       0.933600
     41 O2          -7.3330    -0.3550     1.2480 o          1 4VN      -0.838800
     42 O1          -7.2390    -1.6990    -0.5210 o          1 4VN      -0.838800
@<TRIPOS>BOND
     1     1     2 ar  
     2     1    19 ar  
     3     1    22 1   
     4     2     3 ar  
     5     2    14 1   
     6     3     4 1   
     7     3    15 ar  
     8     4     5 ar  
     9     4     8 ar  
    10     5     6 ar  
    11     5    23 1   
    12     6     7 ar  
    13     6    24 1   
    14     7    20 ar  
    15     7    21 1   
    16     8    20 ar  
    17     8    25 1   
    18     9    10 1   
    19     9    21 1   
    20     9    26 1   
    21     9    27 1   
    22    10    11 1   
    23    10    28 1   
    24    10    29 1   
    25    11    12 1   
    26    11    30 1   
    27    11    40 1   
    28    12    13 1   
    29    12    31 1   
    30    12    32 1   
    31    13    21 1   
    32    13    33 1   
    33    13    34 1   
    34    15    16 ar  
    35    15    35 1   
    36    16    17 1   
    37    16    19 ar  
    38    17    18 1   
    39    17    36 1   
    40    17    37 1   
    41    18    38 1   
    42    19    39 1   
    43    40    41 1   
    44    40    42 1   
@<TRIPOS>SUBSTRUCTURE
     1 4VN         1 TEMP              0 ****  ****    0 ROOT
