@<TRIPOS>MOLECULE
4VO
   64    70     1     0     0
SMALL
abcg2


@<TRIPOS>ATOM
      1 CAP          2.0390    15.5040   -57.3690 c6         1 4VO      -0.067400
      2 CAO          1.4240    15.3590   -55.9830 c6         1 4VO       0.171800
      3 NBB          0.4850    16.4450   -55.7210 n3         1 4VO      -0.732600
      4 CAB          0.0030    16.4310   -54.3520 c3         1 4VO       0.160100
      5 CAZ         -0.5890    16.5300   -56.7200 c6         1 4VO       0.204500
      6 CAQ         -1.4820    15.2760   -56.8140 c6         1 4VO      -0.055100
      7 CAW         -0.9500    14.1810   -57.7140 ca         1 4VO      -0.102300
      8 CAM         -1.6100    12.9520   -57.7260 ca         1 4VO      -0.075000
      9 CAL         -1.1640    11.8830   -58.4890 ca         1 4VO      -0.196000
     10 CAU         -0.0120    12.0400   -59.2530 ca         1 4VO       0.130100
     11 OAD          0.5110    11.0250   -60.0120 oh         1 4VO      -0.541100
     12 CAN          0.6530    13.2590   -59.2620 ca         1 4VO      -0.143000
     13 CAX          0.1880    14.3450   -58.5190 ca         1 4VO      -0.019300
     14 CBF          0.9740    15.6560   -58.4810 c6         1 4VO      -0.019700
     15 CBA          1.6330    16.0220   -59.8690 c5         1 4VO       0.168500
     16 NAS          2.9920    16.5440   -59.8340 n7         1 4VO      -0.878400
     17 CBE          0.8810    17.2240   -60.5020 c5         1 4VO       0.207200
     18 OAT          1.2890    17.5010   -61.8360 os         1 4VO      -0.438000
     19 CAA          1.1670    16.4280   -62.7550 c3         1 4VO       0.145900
     20 CAF         -0.6040    17.1040   -60.3920 c2         1 4VO      -0.232200
     21 CAE         -1.0670    16.8980   -59.1660 c2         1 4VO      -0.204200
     22 CBD         -0.0010    16.8190   -58.1020 c6         1 4VO      -0.009800
     23 CAR          0.7550    18.1670   -58.1900 c6         1 4VO      -0.061400
     24 CBC          1.4410    18.3540   -59.5750 c5         1 4VO      -0.038000
     25 CAC          1.1790    19.7540   -60.1080 c3         1 4VO      -0.067100
     26 CAY          2.9630    17.9670   -59.4680 c5         1 4VO       0.236800
     27 CAV          3.9280    18.8050   -60.2830 ca         1 4VO      -0.071300
     28 CAJ          4.2870    18.4810   -61.5900 ca         1 4VO      -0.090500
     29 CAH          5.1600    19.2910   -62.3090 ca         1 4VO      -0.120500
     30 CAG          5.6920    20.4410   -61.7310 ca         1 4VO      -0.111000
     31 CAI          5.3500    20.7670   -60.4220 ca         1 4VO      -0.120500
     32 CAK          4.4790    19.9510   -59.7080 ca         1 4VO      -0.090500
     33 H1           2.6620    14.6330   -57.5830 hc         1 4VO       0.049700
     34 H2           2.6930    16.3730   -57.3520 hc         1 4VO       0.049700
     35 H3           0.9500    14.3720   -55.8680 h1         1 4VO       0.037200
     36 H4           2.2170    15.4120   -55.2340 h1         1 4VO       0.037200
     37 H6           0.8500    16.5370   -53.6710 h1         1 4VO       0.030700
     38 H7          -0.6750    17.2710   -54.1920 h1         1 4VO       0.030700
     39 H8          -0.5280    15.5060   -54.0780 h1         1 4VO       0.030700
     40 H9          -1.2170    17.3730   -56.4200 h1         1 4VO       0.061700
     41 H10         -2.4730    15.5750   -57.1660 hc         1 4VO       0.050200
     42 H11         -1.6450    14.8680   -55.8140 hc         1 4VO       0.050200
     43 H12         -2.4930    12.8260   -57.1090 ha         1 4VO       0.110000
     44 H13         -1.6910    10.9350   -58.4830 ha         1 4VO       0.114000
     45 H14         -0.0350    10.2330   -59.9160 ho         1 4VO       0.461000
     46 H15          1.5550    13.3360   -59.8550 ha         1 4VO       0.129000
     47 H16          1.5970    15.1600   -60.5250 h1         1 4VO       0.079700
     48 H17          3.6190    16.0060   -59.2540 hn         1 4VO       0.427000
     49 H19          1.2720    16.8560   -63.7510 h1         1 4VO       0.030700
     50 H20          1.9510    15.6790   -62.6070 h1         1 4VO       0.030700
     51 H21          0.1910    15.9370   -62.6810 h1         1 4VO       0.030700
     52 H22         -1.2230    17.2230   -61.2710 ha         1 4VO       0.194000
     53 H24         -2.1200    16.8310   -58.9260 ha         1 4VO       0.186000
     54 H26          1.4850    18.2480   -57.3890 hc         1 4VO       0.057700
     55 H27          0.0260    18.9630   -58.0320 hc         1 4VO       0.057700
     56 H28          1.5650    20.5030   -59.4140 hc         1 4VO       0.042367
     57 H29          1.6470    19.9150   -61.0770 hc         1 4VO       0.042367
     58 H30          0.1040    19.9130   -60.2080 hc         1 4VO       0.042367
     59 H31          3.2570    18.1130   -58.4250 h1         1 4VO       0.031700
     60 H32          3.8730    17.5900   -62.0380 ha         1 4VO       0.119000
     61 H33          5.4270    19.0240   -63.3250 ha         1 4VO       0.108500
     62 H34          6.3740    21.0690   -62.2910 ha         1 4VO       0.108000
     63 H35          5.7660    21.6520   -59.9560 ha         1 4VO       0.108500
     64 H36          4.2230    20.2060   -58.6850 ha         1 4VO       0.119000
@<TRIPOS>BOND
     1     1     2 1   
     2     1    14 1   
     3     1    33 1   
     4     1    34 1   
     5     2     3 1   
     6     2    35 1   
     7     2    36 1   
     8     3     4 1   
     9     3     5 1   
    10     4    37 1   
    11     4    38 1   
    12     4    39 1   
    13     5     6 1   
    14     5    22 1   
    15     5    40 1   
    16     6     7 1   
    17     6    41 1   
    18     6    42 1   
    19     7     8 ar  
    20     7    13 ar  
    21     8     9 ar  
    22     8    43 1   
    23     9    10 ar  
    24     9    44 1   
    25    10    11 1   
    26    10    12 ar  
    27    11    45 1   
    28    12    13 ar  
    29    12    46 1   
    30    13    14 1   
    31    14    15 1   
    32    14    22 1   
    33    15    16 1   
    34    15    17 1   
    35    15    47 1   
    36    16    26 1   
    37    16    48 1   
    38    17    18 1   
    39    17    20 1   
    40    17    24 1   
    41    18    19 1   
    42    19    49 1   
    43    19    50 1   
    44    19    51 1   
    45    20    21 2   
    46    20    52 1   
    47    21    22 1   
    48    21    53 1   
    49    22    23 1   
    50    23    24 1   
    51    23    54 1   
    52    23    55 1   
    53    24    25 1   
    54    24    26 1   
    55    25    56 1   
    56    25    57 1   
    57    25    58 1   
    58    26    27 1   
    59    26    59 1   
    60    27    28 ar  
    61    27    32 ar  
    62    28    29 ar  
    63    28    60 1   
    64    29    30 ar  
    65    29    61 1   
    66    30    31 ar  
    67    30    62 1   
    68    31    32 ar  
    69    31    63 1   
    70    32    64 1   
@<TRIPOS>SUBSTRUCTURE
     1 4VO         1 TEMP              0 ****  ****    0 ROOT
