@<TRIPOS>MOLECULE
4VO
   64    70     1     0     0
SMALL
No Charge or Current Charge


@<TRIPOS>ATOM
      1 CAP          2.0710    15.4860   -57.2950 c6         1 4VO      -0.067400
      2 CAO          1.4100    15.3150   -55.9050 c6         1 4VO       0.171800
      3 NBB          0.4310    16.4030   -55.6290 n3         1 4VO      -0.732600
      4 CAB         -0.0940    16.3710   -54.2450 c3         1 4VO       0.160100
      5 CAZ         -0.6230    16.5200   -56.6950 c6         1 4VO       0.204500
      6 CAQ         -1.5210    15.2450   -56.8170 c6         1 4VO      -0.055100
      7 CAW         -0.9600    14.1360   -57.7250 ca         1 4VO      -0.102300
      8 CAM         -1.6460    12.9080   -57.7540 ca         1 4VO      -0.075000
      9 CAL         -1.1580    11.8330   -58.5100 ca         1 4VO      -0.196000
     10 CAU          0.0380    11.9750   -59.2240 ca         1 4VO       0.130100
     11 OAD          0.5400    10.9230   -59.9290 oh         1 4VO      -0.541100
     12 CAN          0.7290    13.1940   -59.2060 ca         1 4VO      -0.143000
     13 CAX          0.2240    14.3100   -58.4960 ca         1 4VO      -0.019300
     14 CBF          1.0130    15.6550   -58.4520 c6         1 4VO      -0.019700
     15 CBA          1.6520    16.0310   -59.8840 c5         1 4VO       0.168500
     16 NAS          3.0760    16.4780   -59.7750 n7         1 4VO      -0.878400
     17 CBE          0.9520    17.2900   -60.5450 c5         1 4VO       0.207200
     18 OAT          1.3430    17.5530   -61.9260 os         1 4VO      -0.438000
     19 CAA          1.1320    16.5200   -62.9060 c3         1 4VO       0.145900
     20 CAF         -0.5670    17.1810   -60.4430 c2         1 4VO      -0.232200
     21 CAE         -1.0150    16.9460   -59.2040 c2         1 4VO      -0.204200
     22 CBD          0.0260    16.8270   -58.0820 c6         1 4VO      -0.009800
     23 CAR          0.7750    18.2060   -58.1410 c6         1 4VO      -0.061400
     24 CBC          1.4950    18.3880   -59.5480 c5         1 4VO      -0.038000
     25 CAC          1.2450    19.8510   -60.0270 c3         1 4VO      -0.067100
     26 CAY          3.0230    17.9350   -59.4440 c5         1 4VO       0.236800
     27 CAV          3.9380    18.8090   -60.3230 ca         1 4VO      -0.071300
     28 CAJ          4.3070    18.4370   -61.6360 ca         1 4VO      -0.090500
     29 CAH          5.1540    19.2540   -62.4050 ca         1 4VO      -0.120500
     30 CAG          5.6540    20.4520   -61.8700 ca         1 4VO      -0.111000
     31 CAI          5.3100    20.8270   -60.5620 ca         1 4VO      -0.120500
     32 CAK          4.4640    20.0090   -59.7940 ca         1 4VO      -0.090500
     33 H1           2.7180    14.6210   -57.4960 hc         1 4VO       0.049700
     34 H2           2.7380    16.3500   -57.2140 hc         1 4VO       0.049700
     35 H3           0.9260    14.3290   -55.8420 h1         1 4VO       0.037200
     36 H4           2.2030    15.3200   -55.1420 h1         1 4VO       0.037200
     37 H6           0.7260    16.4800   -53.5230 h1         1 4VO       0.030700
     38 H7          -0.8010    17.1950   -54.0780 h1         1 4VO       0.030700
     39 H8          -0.6070    15.4250   -54.0300 h1         1 4VO       0.030700
     40 H9          -1.2830    17.3640   -56.4410 h1         1 4VO       0.061700
     41 H10         -2.5040    15.5410   -57.2050 hc         1 4VO       0.050200
     42 H11         -1.7370    14.8290   -55.8250 hc         1 4VO       0.050200
     43 H12         -2.5580    12.7880   -57.1730 ha         1 4VO       0.110000
     44 H13         -1.6990    10.8900   -58.5170 ha         1 4VO       0.114000
     45 H14         -0.0690    10.1610   -59.8220 ho         1 4VO       0.461000
     46 H15          1.6750    13.2520   -59.7360 ha         1 4VO       0.129000
     47 H16          1.5760    15.1650   -60.5510 h1         1 4VO       0.079700
     48 H17          3.5540    15.9630   -59.0310 hn         1 4VO       0.427000
     49 H19          1.3980    16.8880   -63.9050 h1         1 4VO       0.030700
     50 H20          1.7580    15.6440   -62.6960 h1         1 4VO       0.030700
     51 H21          0.0820    16.2010   -62.9300 h1         1 4VO       0.030700
     52 H22         -1.2340    17.3080   -61.2950 ha         1 4VO       0.194000
     53 H24         -2.0800    16.8760   -58.9780 ha         1 4VO       0.186000
     54 H26          1.4880    18.3150   -57.3140 hc         1 4VO       0.057700
     55 H27          0.0360    19.0030   -57.9790 hc         1 4VO       0.057700
     56 H28          1.6610    20.5780   -59.3200 hc         1 4VO       0.042367
     57 H29          1.6900    20.0470   -61.0100 hc         1 4VO       0.042367
     58 H30          0.1720    20.0580   -60.1200 hc         1 4VO       0.042367
     59 H31          3.3700    18.0720   -58.4120 h1         1 4VO       0.031700
     60 H32          3.9390    17.5090   -62.0640 ha         1 4VO       0.119000
     61 H33          5.4240    18.9560   -63.4150 ha         1 4VO       0.108500
     62 H34          6.3090    21.0840   -62.4660 ha         1 4VO       0.108000
     63 H35          5.7010    21.7510   -60.1420 ha         1 4VO       0.108500
     64 H36          4.2090    20.3110   -58.7810 ha         1 4VO       0.119000
@<TRIPOS>BOND
     1     1     2 1   
     2     1    14 1   
     3     1    33 1   
     4     1    34 1   
     5     2     3 1   
     6     2    35 1   
     7     2    36 1   
     8     3     4 1   
     9     3     5 1   
    10     4    37 1   
    11     4    38 1   
    12     4    39 1   
    13     5     6 1   
    14     5    22 1   
    15     5    40 1   
    16     6     7 1   
    17     6    41 1   
    18     6    42 1   
    19     7     8 ar  
    20     7    13 ar  
    21     8     9 ar  
    22     8    43 1   
    23     9    10 ar  
    24     9    44 1   
    25    10    11 1   
    26    10    12 ar  
    27    11    45 1   
    28    12    13 ar  
    29    12    46 1   
    30    13    14 1   
    31    14    15 1   
    32    14    22 1   
    33    15    16 1   
    34    15    17 1   
    35    15    47 1   
    36    16    26 1   
    37    16    48 1   
    38    17    18 1   
    39    17    20 1   
    40    17    24 1   
    41    18    19 1   
    42    19    49 1   
    43    19    50 1   
    44    19    51 1   
    45    20    21 2   
    46    20    52 1   
    47    21    22 1   
    48    21    53 1   
    49    22    23 1   
    50    23    24 1   
    51    23    54 1   
    52    23    55 1   
    53    24    25 1   
    54    24    26 1   
    55    25    56 1   
    56    25    57 1   
    57    25    58 1   
    58    26    27 1   
    59    26    59 1   
    60    27    28 ar  
    61    27    32 ar  
    62    28    29 ar  
    63    28    60 1   
    64    29    30 ar  
    65    29    61 1   
    66    30    31 ar  
    67    30    62 1   
    68    31    32 ar  
    69    31    63 1   
    70    32    64 1   
@<TRIPOS>SUBSTRUCTURE
     1 4VO         1 TEMP              0 ****  ****    0 ROOT
