@<TRIPOS>MOLECULE
4VP
   17    17     1     0     0
SMALL
abcg2


@<TRIPOS>ATOM
      1 C2           3.4080    -0.5370    -0.0150 c2         1 4VP      -0.314000
      2 C3           2.4740     0.4140    -0.0400 ce         1 4VP      -0.152200
      3 C1           1.0220     0.2350     0.0280 ca         1 4VP      -0.093800
      4 C6           0.1940     1.3600     0.0280 ca         1 4VP      -0.059000
      5 C5          -1.1850     1.2540     0.0970 ca         1 4VP      -0.178000
      6 C4          -1.7790    -0.0040     0.1670 ca         1 4VP       0.142100
      7 O4          -3.1220    -0.0670     0.2330 oh         1 4VP      -0.532100
      8 C8          -0.9710    -1.1410     0.1640 ca         1 4VP      -0.178000
      9 C7           0.4040    -1.0170     0.0960 ca         1 4VP      -0.059000
     10 H1           3.1760    -1.5920     0.0620 ha         1 4VP       0.162500
     11 H2           4.4570    -0.2810    -0.0710 ha         1 4VP       0.162500
     12 H3           2.8020     1.4470    -0.1170 ha         1 4VP       0.167000
     13 H4           0.6380     2.3470    -0.0270 ha         1 4VP       0.112500
     14 H5          -1.8040     2.1420     0.0970 ha         1 4VP       0.120500
     15 H6          -3.4130    -0.9850     0.2880 ho         1 4VP       0.465000
     16 H7          -1.4190    -2.1270     0.2170 ha         1 4VP       0.120500
     17 H8           1.0020    -1.9200     0.0950 ha         1 4VP       0.112500
@<TRIPOS>BOND
     1     1     2 2   
     2     1    10 1   
     3     1    11 1   
     4     2     3 1   
     5     2    12 1   
     6     3     4 ar  
     7     3     9 ar  
     8     4     5 ar  
     9     4    13 1   
    10     5     6 ar  
    11     5    14 1   
    12     6     7 1   
    13     6     8 ar  
    14     7    15 1   
    15     8     9 ar  
    16     8    16 1   
    17     9    17 1   
@<TRIPOS>SUBSTRUCTURE
     1 4VP         1 TEMP              0 ****  ****    0 ROOT
