@<TRIPOS>MOLECULE
4VP
   17    17     1     0     0
SMALL
No Charge or Current Charge


@<TRIPOS>ATOM
      1 C2           3.4230    -0.5540     0.0250 c2         1 4VP      -0.314000
      2 C3           2.4970     0.4250    -0.0810 ce         1 4VP      -0.152200
      3 C1           1.0160     0.2530     0.0100 ca         1 4VP      -0.093800
      4 C6           0.1960     1.4000     0.0370 ca         1 4VP      -0.059000
      5 C5          -1.2020     1.2770     0.1210 ca         1 4VP      -0.178000
      6 C4          -1.7950     0.0090     0.1760 ca         1 4VP       0.142100
      7 O4          -3.1500    -0.0990     0.2570 oh         1 4VP      -0.532100
      8 C8          -0.9920    -1.1400     0.1470 ca         1 4VP      -0.178000
      9 C7           0.4080    -1.0210     0.0630 ca         1 4VP      -0.059000
     10 H1           3.1680    -1.5990     0.1950 ha         1 4VP       0.162500
     11 H2           4.4880    -0.3300    -0.0520 ha         1 4VP       0.162500
     12 H3           2.8270     1.4550    -0.2410 ha         1 4VP       0.167000
     13 H4           0.6420     2.3910    -0.0050 ha         1 4VP       0.112500
     14 H5          -1.8240     2.1690     0.1420 ha         1 4VP       0.120500
     15 H6          -3.3840    -1.0520     0.2860 ho         1 4VP       0.465000
     16 H7          -1.4420    -2.1290     0.1860 ha         1 4VP       0.120500
     17 H8           1.0070    -1.9270     0.0360 ha         1 4VP       0.112500
@<TRIPOS>BOND
     1     1     2 2   
     2     1    10 1   
     3     1    11 1   
     4     2     3 1   
     5     2    12 1   
     6     3     4 ar  
     7     3     9 ar  
     8     4     5 ar  
     9     4    13 1   
    10     5     6 ar  
    11     5    14 1   
    12     6     7 1   
    13     6     8 ar  
    14     7    15 1   
    15     8     9 ar  
    16     8    16 1   
    17     9    17 1   
@<TRIPOS>SUBSTRUCTURE
     1 4VP         1 TEMP              0 ****  ****    0 ROOT
