@<TRIPOS>MOLECULE
4VQ
   49    51     1     0     0
SMALL
No Charge or Current Charge


@<TRIPOS>ATOM
      1 CAD         -3.9700     2.3640    -1.6800 c3         1 4VQ      -0.027800
      2 CAT         -3.9490     1.1060    -0.8150 ca         1 4VQ      -0.060300
      3 CAK         -2.7590     0.3550    -0.7330 ca         1 4VQ      -0.102000
      4 CBA         -5.0890     0.6910    -0.0810 ca         1 4VQ      -0.103600
      5 CAS         -6.4000     1.4470    -0.1320 c          1 4VQ       0.710600
      6 OAG         -6.9280     1.6330    -1.2190 o          1 4VQ      -0.715000
      7 OAF         -6.9120     1.7770     0.9290 o          1 4VQ      -0.715000
      8 CAI         -4.9970    -0.4570     0.7330 ca         1 4VQ      -0.099000
      9 CAH         -3.8050    -1.1960     0.8060 ca         1 4VQ      -0.131000
     10 CAV         -2.6600    -0.8140     0.0650 cp         1 4VQ      -0.198500
     11 CBB         -1.3730    -1.5990     0.1390 cp         1 4VQ       0.356500
     12 NAO         -0.2270    -0.8600     0.1170 nb         1 4VQ      -0.625000
     13 CAU         -1.3080    -3.0530     0.2000 ca         1 4VQ       0.562900
     14 NAE         -2.3350    -3.9380     0.1590 nv         1 4VQ      -1.048900
     15 NAN         -0.1680    -3.7490     0.2550 nb         1 4VQ      -0.744000
     16 CAJ          0.9600    -2.9840     0.2490 ca         1 4VQ       0.336900
     17 CAX          0.9510    -1.5460     0.1740 cp         1 4VQ       0.284500
     18 CAW          2.2230    -0.7270     0.1660 cp         1 4VQ      -0.039500
     19 CAM          3.4610    -1.2890    -0.2280 ca         1 4VQ      -0.211500
     20 CAL          2.2240     0.6390     0.5480 ca         1 4VQ      -0.211500
     21 CAY          3.4000     1.4250     0.5490 ca         1 4VQ       0.150100
     22 OAP          3.3460     2.7560     0.9330 os         1 4VQ      -0.332100
     23 CAA          2.1320     3.4170     1.3330 c3         1 4VQ       0.145900
     24 CBC          4.6360     0.8320     0.1520 ca         1 4VQ       0.015100
     25 OAR          5.8630     1.5000     0.1110 os         1 4VQ      -0.330100
     26 CAC          6.0680     2.8790     0.4650 c3         1 4VQ       0.149900
     27 CAZ          4.6500    -0.5280    -0.2360 ca         1 4VQ       0.150100
     28 OAQ          5.8600    -1.0840    -0.6250 os         1 4VQ      -0.332100
     29 CAB          5.9960    -2.4560    -1.0350 c3         1 4VQ       0.145900
     30 HAD1        -4.5180     2.1890    -2.6130 hc         1 4VQ       0.037367
     31 HAD2        -4.4460     3.2010    -1.1570 hc         1 4VQ       0.037367
     32 HAD3        -2.9570     2.6870    -1.9490 hc         1 4VQ       0.037367
     33 HAK         -1.8920     0.6810    -1.3060 ha         1 4VQ       0.100000
     34 HAI         -5.8600    -0.7770     1.3130 ha         1 4VQ       0.128000
     35 HAH         -3.7700    -2.0620     1.4620 ha         1 4VQ       0.097000
     36 HAE1        -3.2170    -3.6140    -0.2260 hn         1 4VQ       0.482000
     37 HAE2        -2.0750    -4.8970    -0.0380 hn         1 4VQ       0.482000
     38 HAJ          1.8950    -3.5350     0.3160 h4         1 4VQ       0.013100
     39 HAM          3.4860    -2.3250    -0.5480 ha         1 4VQ       0.134000
     40 HAL          1.2810     1.0780     0.8550 ha         1 4VQ       0.134000
     41 HAA1         2.3370     4.4640     1.5870 h1         1 4VQ       0.041367
     42 HAA2         1.3930     3.4030     0.5220 h1         1 4VQ       0.041367
     43 HAA3         1.6970     2.9330     2.2180 h1         1 4VQ       0.041367
     44 HAC1         5.4800     3.5420    -0.1830 h1         1 4VQ       0.029033
     45 HAC2         5.7950     3.0600     1.5130 h1         1 4VQ       0.029033
     46 HAC3         7.1250     3.1450     0.3440 h1         1 4VQ       0.029033
     47 HAB1         5.6970    -3.1370    -0.2280 h1         1 4VQ       0.041367
     48 HAB2         5.3790    -2.6620    -1.9200 h1         1 4VQ       0.041367
     49 HAB3         7.0400    -2.6740    -1.2920 h1         1 4VQ       0.041367
@<TRIPOS>BOND
     1     1     2 1   
     2     1    30 1   
     3     1    31 1   
     4     1    32 1   
     5     2     3 ar  
     6     2     4 ar  
     7     3    10 ar  
     8     3    33 1   
     9     4     5 1   
    10     4     8 ar  
    11     5     6 1   
    12     5     7 1   
    13     8     9 ar  
    14     8    34 1   
    15     9    10 ar  
    16     9    35 1   
    17    10    11 1   
    18    11    12 ar  
    19    11    13 ar  
    20    12    17 ar  
    21    13    14 1   
    22    13    15 ar  
    23    14    36 1   
    24    14    37 1   
    25    15    16 ar  
    26    16    17 ar  
    27    16    38 1   
    28    17    18 1   
    29    18    19 ar  
    30    18    20 ar  
    31    19    27 ar  
    32    19    39 1   
    33    20    21 ar  
    34    20    40 1   
    35    21    22 1   
    36    21    24 ar  
    37    22    23 1   
    38    23    41 1   
    39    23    42 1   
    40    23    43 1   
    41    24    25 1   
    42    24    27 ar  
    43    25    26 1   
    44    26    44 1   
    45    26    45 1   
    46    26    46 1   
    47    27    28 1   
    48    28    29 1   
    49    29    47 1   
    50    29    48 1   
    51    29    49 1   
@<TRIPOS>SUBSTRUCTURE
     1 4VQ         1 TEMP              0 ****  ****    0 ROOT
