@<TRIPOS>MOLECULE
4VQ
   49    51     1     0     0
SMALL
abcg2


@<TRIPOS>ATOM
      1 CAD         -3.9990     2.1370    -1.8090 c3         1 4VQ      -0.027800
      2 CAT         -3.9300     1.0090    -0.8160 ca         1 4VQ      -0.060300
      3 CAK         -2.7550     0.2640    -0.7550 ca         1 4VQ      -0.102000
      4 CBA         -4.9780     0.6860     0.0620 ca         1 4VQ      -0.103600
      5 CAS         -6.3160     1.4180     0.0840 c          1 4VQ       0.710600
      6 OAG         -6.7470     1.8430    -1.0040 o          1 4VQ      -0.715000
      7 OAF         -6.8750     1.5050     1.1930 o          1 4VQ      -0.715000
      8 CAI         -4.7980    -0.3650     0.9590 ca         1 4VQ      -0.099000
      9 CAH         -3.6420    -1.1270     0.9770 ca         1 4VQ      -0.131000
     10 CAV         -2.5970    -0.8160     0.1100 cp         1 4VQ      -0.198500
     11 CBB         -1.3190    -1.5560     0.1270 cp         1 4VQ       0.356500
     12 NAO         -0.2110    -0.8510     0.0670 nb         1 4VQ      -0.625000
     13 CAU         -1.2480    -2.9770     0.1710 ca         1 4VQ       0.562900
     14 NAE         -2.3500    -3.7660     0.1710 nv         1 4VQ      -1.048900
     15 NAN         -0.0670    -3.5780     0.2380 nb         1 4VQ      -0.744000
     16 CAJ          1.0260    -2.8320     0.2170 ca         1 4VQ       0.336900
     17 CAX          0.9810    -1.4500     0.0960 cp         1 4VQ       0.284500
     18 CAW          2.1810    -0.5950     0.0300 cp         1 4VQ      -0.039500
     19 CAM          3.4320    -1.1400    -0.2550 ca         1 4VQ      -0.211500
     20 CAL          2.0520     0.7740     0.2490 ca         1 4VQ      -0.211500
     21 CAY          3.1710     1.5980     0.1970 ca         1 4VQ       0.150100
     22 OAP          3.1450     2.9260     0.3990 os         1 4VQ      -0.332100
     23 CAA          1.9010     3.5420     0.6650 c3         1 4VQ       0.145900
     24 CBC          4.4280     1.0570    -0.0870 ca         1 4VQ       0.015100
     25 OAR          5.5180     1.8640    -0.1730 os         1 4VQ      -0.330100
     26 CAC          6.2070     2.0510     1.0560 c3         1 4VQ       0.149900
     27 CAZ          4.5540    -0.3170    -0.3050 ca         1 4VQ       0.150100
     28 OAQ          5.7980    -0.7480    -0.5750 os         1 4VQ      -0.332100
     29 CAB          5.9970    -2.1260    -0.8210 c3         1 4VQ       0.145900
     30 HAD1        -4.6950     1.9160    -2.6160 hc         1 4VQ       0.037367
     31 HAD2        -4.3340     3.0660    -1.3500 hc         1 4VQ       0.037367
     32 HAD3        -3.0170     2.3120    -2.2450 hc         1 4VQ       0.037367
     33 HAK         -1.9350     0.5260    -1.4140 ha         1 4VQ       0.100000
     34 HAI         -5.5890    -0.5960     1.6600 ha         1 4VQ       0.128000
     35 HAH         -3.5490    -1.9390     1.6870 ha         1 4VQ       0.097000
     36 HAE1        -3.2170    -3.3950    -0.1820 hn         1 4VQ       0.482000
     37 HAE2        -2.2000    -4.7430    -0.0210 hn         1 4VQ       0.482000
     38 HAJ          1.9650    -3.3670     0.3080 h4         1 4VQ       0.013100
     39 HAM          3.5320    -2.1970    -0.4550 ha         1 4VQ       0.134000
     40 HAL          1.0730     1.1750     0.4670 ha         1 4VQ       0.134000
     41 HAA1         2.1010     4.6060     0.7720 h1         1 4VQ       0.041367
     42 HAA2         1.1900     3.3970    -0.1520 h1         1 4VQ       0.041367
     43 HAA3         1.4510     3.1750     1.5910 h1         1 4VQ       0.041367
     44 HAC1         5.5750     2.5340     1.8050 h1         1 4VQ       0.029033
     45 HAC2         6.5750     1.1070     1.4630 h1         1 4VQ       0.029033
     46 HAC3         7.0590     2.6970     0.8510 h1         1 4VQ       0.029033
     47 HAB1         5.7170    -2.7390     0.0390 h1         1 4VQ       0.041367
     48 HAB2         5.4380    -2.4680    -1.6960 h1         1 4VQ       0.041367
     49 HAB3         7.0590    -2.2540    -1.0120 h1         1 4VQ       0.041367
@<TRIPOS>BOND
     1     1     2 1   
     2     1    30 1   
     3     1    31 1   
     4     1    32 1   
     5     2     3 ar  
     6     2     4 ar  
     7     3    10 ar  
     8     3    33 1   
     9     4     5 1   
    10     4     8 ar  
    11     5     6 1   
    12     5     7 1   
    13     8     9 ar  
    14     8    34 1   
    15     9    10 ar  
    16     9    35 1   
    17    10    11 1   
    18    11    12 ar  
    19    11    13 ar  
    20    12    17 ar  
    21    13    14 1   
    22    13    15 ar  
    23    14    36 1   
    24    14    37 1   
    25    15    16 ar  
    26    16    17 ar  
    27    16    38 1   
    28    17    18 1   
    29    18    19 ar  
    30    18    20 ar  
    31    19    27 ar  
    32    19    39 1   
    33    20    21 ar  
    34    20    40 1   
    35    21    22 1   
    36    21    24 ar  
    37    22    23 1   
    38    23    41 1   
    39    23    42 1   
    40    23    43 1   
    41    24    25 1   
    42    24    27 ar  
    43    25    26 1   
    44    26    44 1   
    45    26    45 1   
    46    26    46 1   
    47    27    28 1   
    48    28    29 1   
    49    29    47 1   
    50    29    48 1   
    51    29    49 1   
@<TRIPOS>SUBSTRUCTURE
     1 4VQ         1 TEMP              0 ****  ****    0 ROOT
