@<TRIPOS>MOLECULE
4VR
   38    40     1     0     0
SMALL
abcg2


@<TRIPOS>ATOM
      1 C1           8.7730    -2.3200     0.3010 c3         1 4VR      -0.092100
      2 C2           7.4170    -1.6680     0.5200 c3         1 4VR      -0.075400
      3 C3           7.0420    -0.7470    -0.6460 c3         1 4VR      -0.058200
      4 C4           5.7260    -0.0710    -0.4450 cc         1 4VR       0.186800
      5 C5           5.5940     1.2580    -0.2010 cd         1 4VR      -0.390200
      6 C6           4.3180     1.8890     0.0210 c          1 4VR       0.563000
      7 O7           4.1110     3.0670     0.2370 o          1 4VR      -0.473000
      8 N8           3.2690     0.9720    -0.0350 n          1 4VR      -0.063500
      9 N9           1.9570     1.2650     0.1560 nc         1 4VR      -0.563800
     10 C10          1.3890     0.0880     0.0010 cd         1 4VR       0.794900
     11 N11          0.0500    -0.1060     0.0610 nu         1 4VR      -0.898100
     12 C12         -0.8120     0.9400     0.5680 c3         1 4VR       0.261100
     13 C13         -2.2540     0.6020     0.3110 ca         1 4VR      -0.093300
     14 C14         -3.1630     0.5250     1.3580 ca         1 4VR      -0.093500
     15 C15         -4.5000     0.2230     1.1300 ca         1 4VR      -0.088500
     16 C16         -4.9220    -0.0090    -0.1680 ca         1 4VR      -0.012900
     17 BR1         -6.7360    -0.4260    -0.4970 br         1 4VR      -0.100100
     18 C18         -4.0340     0.0570    -1.2340 ca         1 4VR      -0.088500
     19 C19         -2.7060     0.3620    -0.9850 ca         1 4VR      -0.093500
     20 N20          2.2360    -0.9480    -0.2620 nd         1 4VR      -0.776000
     21 C21          3.3960    -0.3530    -0.2740 cc         1 4VR       0.691400
     22 N22          4.6220    -0.8710    -0.4830 na         1 4VR      -0.765900
     23 H1           8.7790    -2.9210    -0.6100 hc         1 4VR       0.039367
     24 H2           9.5620    -1.5710     0.2100 hc         1 4VR       0.039367
     25 H3           9.0300    -2.9750     1.1330 hc         1 4VR       0.039367
     26 H4           6.6570    -2.4440     0.6460 hc         1 4VR       0.047700
     27 H5           7.4250    -1.0890     1.4460 hc         1 4VR       0.047700
     28 H6           7.8080     0.0190    -0.7700 hc         1 4VR       0.068700
     29 H7           7.0130    -1.3230    -1.5750 hc         1 4VR       0.068700
     30 H8           6.4750     1.8820    -0.1700 ha         1 4VR       0.224000
     31 H10         -0.2260    -1.0520     0.2750 hn         1 4VR       0.489000
     32 H11         -0.6570     1.1180     1.6380 h1         1 4VR       0.060700
     33 H12         -0.5550     1.8700     0.0570 h1         1 4VR       0.060700
     34 H13         -2.8310     0.7010     2.3740 ha         1 4VR       0.123500
     35 H14         -5.1890     0.1680     1.9620 ha         1 4VR       0.130500
     36 H15         -4.3650    -0.1230    -2.2480 ha         1 4VR       0.130500
     37 H16         -2.0130     0.4130    -1.8160 ha         1 4VR       0.123500
     38 H9           4.7010    -1.8580    -0.6820 hn         1 4VR       0.535000
@<TRIPOS>BOND
     1     1     2 1   
     2     1    23 1   
     3     1    24 1   
     4     1    25 1   
     5     2     3 1   
     6     2    26 1   
     7     2    27 1   
     8     3     4 1   
     9     3    28 1   
    10     3    29 1   
    11     4     5 2   
    12     4    22 1   
    13     5     6 1   
    14     5    30 1   
    15     6     7 2   
    16     6     8 1   
    17     8     9 1   
    18     8    21 1   
    19     9    10 2   
    20    10    11 1   
    21    10    20 1   
    22    11    12 1   
    23    11    31 1   
    24    12    13 1   
    25    12    32 1   
    26    12    33 1   
    27    13    14 ar  
    28    13    19 ar  
    29    14    15 ar  
    30    14    34 1   
    31    15    16 ar  
    32    15    35 1   
    33    16    17 1   
    34    16    18 ar  
    35    18    19 ar  
    36    18    36 1   
    37    19    37 1   
    38    20    21 2   
    39    21    22 1   
    40    22    38 1   
@<TRIPOS>SUBSTRUCTURE
     1 4VR         1 TEMP              0 ****  ****    0 ROOT
