@<TRIPOS>MOLECULE
4VR
   38    40     1     0     0
SMALL
No Charge or Current Charge


@<TRIPOS>ATOM
      1 C1           8.6960    -2.5740     0.2910 c3         1 4VR      -0.092100
      2 C2           7.4250    -1.7460     0.5620 c3         1 4VR      -0.075400
      3 C3           6.9440    -0.9490    -0.6700 c3         1 4VR      -0.058200
      4 C4           5.7100    -0.1350    -0.3950 cc         1 4VR       0.186800
      5 C5           5.7080     1.2280    -0.1300 cd         1 4VR      -0.390200
      6 C6           4.5370     2.0760     0.1490 c          1 4VR       0.563000
      7 O7           4.6010     3.2770     0.3760 o          1 4VR      -0.473000
      8 N8           3.3620     1.3490     0.1220 n          1 4VR      -0.063500
      9 N9           2.0420     1.6440     0.3080 nc         1 4VR      -0.563800
     10 C10          1.4290     0.4880     0.1430 cd         1 4VR       0.794900
     11 N11          0.1170     0.2920     0.2310 nu         1 4VR      -0.898100
     12 C12         -0.9100     1.3280     0.3420 c3         1 4VR       0.261100
     13 C13         -2.2910     0.7060     0.1820 ca         1 4VR      -0.093300
     14 C14         -2.9820     0.2120     1.3070 ca         1 4VR      -0.093500
     15 C15         -4.2560    -0.3650     1.1600 ca         1 4VR      -0.088500
     16 C16         -4.8440    -0.4500    -0.1130 ca         1 4VR      -0.012900
     17 Br1         -6.5760    -1.2340    -0.3140 br         1 4VR      -0.100100
     18 C18         -4.1610     0.0380    -1.2400 ca         1 4VR      -0.088500
     19 C19         -2.8860     0.6150    -1.0920 ca         1 4VR      -0.093500
     20 N20          2.2230    -0.5890    -0.1450 nd         1 4VR      -0.776000
     21 C21          3.3690     0.0330    -0.1350 cc         1 4VR       0.691400
     22 N22          4.4490    -0.7510    -0.3950 na         1 4VR      -0.765900
     23 H1           8.5210    -3.3050    -0.5090 hc         1 4VR       0.039367
     24 H2           9.5270    -1.9240    -0.0100 hc         1 4VR       0.039367
     25 H3           8.9980    -3.1190     1.1930 hc         1 4VR       0.039367
     26 H4           6.6250    -2.4190     0.8960 hc         1 4VR       0.047700
     27 H5           7.6210    -1.0500     1.3880 hc         1 4VR       0.047700
     28 H6           7.7510    -0.2890    -1.0090 hc         1 4VR       0.068700
     29 H7           6.7490    -1.6430    -1.4980 hc         1 4VR       0.068700
     30 H8           6.6410     1.7780    -0.1110 ha         1 4VR       0.224000
     31 H10         -0.1570    -0.6490    -0.0280 hn         1 4VR       0.489000
     32 H11         -0.8430     1.8260     1.3190 h1         1 4VR       0.060700
     33 H12         -0.7630     2.0960    -0.4310 h1         1 4VR       0.060700
     34 H13         -2.5300     0.2720     2.2950 ha         1 4VR       0.123500
     35 H14         -4.7850    -0.7450     2.0310 ha         1 4VR       0.130500
     36 H15         -4.6160    -0.0300    -2.2250 ha         1 4VR       0.130500
     37 H16         -2.3610     0.9890    -1.9690 ha         1 4VR       0.123500
     38 H9           4.3030    -1.7360    -0.5720 hn         1 4VR       0.535000
@<TRIPOS>BOND
     1     1     2 1   
     2     1    23 1   
     3     1    24 1   
     4     1    25 1   
     5     2     3 1   
     6     2    26 1   
     7     2    27 1   
     8     3     4 1   
     9     3    28 1   
    10     3    29 1   
    11     4     5 2   
    12     4    22 1   
    13     5     6 1   
    14     5    30 1   
    15     6     7 2   
    16     6     8 1   
    17     8     9 1   
    18     8    21 1   
    19     9    10 2   
    20    10    11 1   
    21    10    20 1   
    22    11    12 1   
    23    11    31 1   
    24    12    13 1   
    25    12    32 1   
    26    12    33 1   
    27    13    14 ar  
    28    13    19 ar  
    29    14    15 ar  
    30    14    34 1   
    31    15    16 ar  
    32    15    35 1   
    33    16    17 1   
    34    16    18 ar  
    35    18    19 ar  
    36    18    36 1   
    37    19    37 1   
    38    20    21 2   
    39    21    22 1   
    40    22    38 1   
@<TRIPOS>SUBSTRUCTURE
     1 4VR         1 TEMP              0 ****  ****    0 ROOT
