@<TRIPOS>MOLECULE
4VS
   25    26     1     0     0
SMALL
No Charge or Current Charge


@<TRIPOS>ATOM
      1 N3          -2.3640    -3.0140    -0.0030 n1         1 4VS      -0.475000
      2 C9          -2.0050    -1.9040    -0.0000 cg         1 4VS       0.366000
      3 C8          -1.5360    -0.5650     0.0010 cc         1 4VS      -0.209000
      4 C6          -2.3280     0.6070     0.1000 cc         1 4VS       0.333300
      5 C7          -3.8260     0.5840     0.2230 c3         1 4VS      -0.132400
      6 N2          -1.6250     1.7380     0.0760 nd         1 4VS      -0.474800
      7 C10         -0.2880    -0.0550    -0.0870 cd         1 4VS       0.288000
      8 N1          -0.2860     1.3030    -0.0470 n          1 4VS       0.129000
      9 C5           0.9280     1.9850    -0.1270 c          1 4VS       0.562000
     10 O            1.0300     3.2060    -0.0990 o          1 4VS      -0.458000
     11 C4           2.0850     1.0750    -0.2470 cc         1 4VS      -0.391200
     12 N4           0.7910    -0.9220    -0.2020 na         1 4VS      -0.788000
     13 C3           2.0550    -0.3130    -0.2850 cd         1 4VS       0.186800
     14 C2           3.2780    -1.1820    -0.4080 c3         1 4VS      -0.057200
     15 C1           3.7150    -1.7890     0.9410 c3         1 4VS      -0.092100
     16 H1          -4.1330     0.0400     1.1240 hc         1 4VS       0.059033
     17 H2          -4.2340     1.6000     0.2870 hc         1 4VS       0.059033
     18 H3          -4.2790     0.0930    -0.6460 hc         1 4VS       0.059033
     19 H4           3.0330     1.5950    -0.3070 ha         1 4VS       0.226000
     20 H6           3.0920    -1.9940    -1.1220 hc         1 4VS       0.068700
     21 H7           4.1110    -0.6010    -0.8210 hc         1 4VS       0.068700
     22 H8           4.6120    -2.4060     0.8120 hc         1 4VS       0.047033
     23 H9           3.9440    -0.9960     1.6640 hc         1 4VS       0.047033
     24 H10          2.9220    -2.4190     1.3600 hc         1 4VS       0.047033
     25 H5           0.6750    -1.9350    -0.2220 hn         1 4VS       0.532000
@<TRIPOS>BOND
     1     1     2 3   
     2     2     3 1   
     3     3     4 1   
     4     3     7 2   
     5     4     5 1   
     6     4     6 2   
     7     5    16 1   
     8     5    17 1   
     9     5    18 1   
    10     6     8 1   
    11     7     8 1   
    12     7    12 1   
    13     8     9 1   
    14     9    10 2   
    15     9    11 1   
    16    11    13 2   
    17    11    19 1   
    18    12    13 1   
    19    12    25 1   
    20    13    14 1   
    21    14    15 1   
    22    14    20 1   
    23    14    21 1   
    24    15    22 1   
    25    15    23 1   
    26    15    24 1   
@<TRIPOS>SUBSTRUCTURE
     1 4VS         1 TEMP              0 ****  ****    0 ROOT
