@<TRIPOS>MOLECULE
4VS
   25    26     1     0     0
SMALL
abcg2


@<TRIPOS>ATOM
      1 N3          -2.5150    -3.0510     0.0330 n1         1 4VS      -0.475000
      2 C9          -2.0940    -1.9760     0.0200 cg         1 4VS       0.366000
      3 C8          -1.5900    -0.6670     0.0060 cc         1 4VS      -0.209000
      4 C6          -2.3120     0.5560     0.1100 cc         1 4VS       0.333300
      5 C7          -3.7820     0.6990     0.2500 c3         1 4VS      -0.132400
      6 N2          -1.5090     1.5860     0.0650 nd         1 4VS      -0.474800
      7 C10         -0.2670    -0.2750    -0.1050 cd         1 4VS       0.288000
      8 N1          -0.2660     1.0770    -0.0670 n          1 4VS       0.129000
      9 C5           0.8890     1.8760    -0.1570 c          1 4VS       0.562000
     10 O            0.8060     3.0840    -0.1220 o          1 4VS      -0.458000
     11 C4           2.0870     1.0900    -0.2830 cc         1 4VS      -0.391200
     12 N4           0.8960    -0.9400    -0.2270 na         1 4VS      -0.788000
     13 C3           2.0780    -0.2670    -0.3140 cd         1 4VS       0.186800
     14 C2           3.3130    -1.1020    -0.3960 c3         1 4VS      -0.057200
     15 C1           3.6560    -1.7460     0.9480 c3         1 4VS      -0.092100
     16 H1          -4.1500     0.1110     1.0900 hc         1 4VS       0.059033
     17 H2          -4.0540     1.7400     0.4100 hc         1 4VS       0.059033
     18 H3          -4.2920     0.3430    -0.6460 hc         1 4VS       0.059033
     19 H4           3.0260     1.6190    -0.3550 ha         1 4VS       0.226000
     20 H6           3.1750    -1.8740    -1.1570 hc         1 4VS       0.068700
     21 H7           4.1350    -0.4710    -0.7280 hc         1 4VS       0.068700
     22 H8           4.5740    -2.3250     0.8560 hc         1 4VS       0.047033
     23 H9           3.8100    -0.9880     1.7150 hc         1 4VS       0.047033
     24 H10          2.8720    -2.4210     1.2900 hc         1 4VS       0.047033
     25 H5           0.8810    -1.9490    -0.2730 hn         1 4VS       0.532000
@<TRIPOS>BOND
     1     1     2 3   
     2     2     3 1   
     3     3     4 1   
     4     3     7 2   
     5     4     5 1   
     6     4     6 2   
     7     5    16 1   
     8     5    17 1   
     9     5    18 1   
    10     6     8 1   
    11     7     8 1   
    12     7    12 1   
    13     8     9 1   
    14     9    10 2   
    15     9    11 1   
    16    11    13 2   
    17    11    19 1   
    18    12    13 1   
    19    12    25 1   
    20    13    14 1   
    21    14    15 1   
    22    14    20 1   
    23    14    21 1   
    24    15    22 1   
    25    15    23 1   
    26    15    24 1   
@<TRIPOS>SUBSTRUCTURE
     1 4VS         1 TEMP              0 ****  ****    0 ROOT
