@<TRIPOS>MOLECULE
4VT
   29    31     1     0     0
SMALL
No Charge or Current Charge


@<TRIPOS>ATOM
      1 O1          -2.7990    -2.7660     1.9640 o          1 4VT      -0.457000
      2 C2          -2.0440    -1.9800     1.4060 c          1 4VT       0.563000
      3 C3          -0.5760    -1.9720     1.6150 cc         1 4VT      -0.396200
      4 C4           0.3450    -1.1170     1.0220 cd         1 4VT       0.191800
      5 C5           1.8360    -1.1480     1.2670 c3         1 4VT      -0.006900
      6 C6           2.6310    -0.0960     0.4950 ca         1 4VT      -0.110300
      7 C7           3.1270    -0.3830    -0.7920 ca         1 4VT      -0.103000
      8 C8           3.8410     0.5910    -1.5100 ca         1 4VT      -0.103000
      9 C9           4.0620     1.8600    -0.9470 ca         1 4VT      -0.097000
     10 C10          3.5670     2.1530     0.3350 ca         1 4VT      -0.103000
     11 C11          2.8530     1.1780     1.0540 ca         1 4VT      -0.103000
     12 N12         -0.2110    -0.1810     0.1430 na         1 4VT      -0.782000
     13 C13         -1.5740    -0.1640    -0.0710 cc         1 4VT       0.286000
     14 C14         -2.1200     0.7430    -0.9240 cd         1 4VT      -0.205000
     15 C15         -3.5060     0.3980    -0.8340 cd         1 4VT       0.314900
     16 N16         -3.7050    -0.6210     0.0050 nc         1 4VT      -0.470800
     17 N17         -2.4670    -0.9960     0.5060 n          1 4VT       0.125000
     18 C18         -1.5040     1.7560    -1.6960 ch         1 4VT       0.365000
     19 N19         -0.9700     2.5840    -2.3220 n1         1 4VT      -0.471000
     20 H1          -0.2360    -2.7300     2.3100 ha         1 4VT       0.225000
     21 H2           2.0200    -1.0300     2.3410 hc         1 4VT       0.078200
     22 H3           2.2140    -2.1470     1.0190 hc         1 4VT       0.078200
     23 H4           2.9570    -1.3610    -1.2380 ha         1 4VT       0.115500
     24 H5           4.2220     0.3640    -2.5040 ha         1 4VT       0.120500
     25 H6           4.6140     2.6140    -1.5030 ha         1 4VT       0.120000
     26 H7           3.7350     3.1350     0.7710 ha         1 4VT       0.120500
     27 H8           2.4680     1.4160     2.0440 ha         1 4VT       0.115500
     28 H9           0.4020     0.4820    -0.3310 hn         1 4VT       0.538000
     29 H10         -4.3490     0.8500    -1.3420 h4         1 4VT       0.052100
@<TRIPOS>BOND
     1     1     2 2   
     2     2     3 1   
     3     2    17 1   
     4     3     4 2   
     5     3    20 1   
     6     4     5 1   
     7     4    12 1   
     8     5     6 1   
     9     5    21 1   
    10     5    22 1   
    11     6     7 ar  
    12     6    11 ar  
    13     7     8 ar  
    14     7    23 1   
    15     8     9 ar  
    16     8    24 1   
    17     9    10 ar  
    18     9    25 1   
    19    10    11 ar  
    20    10    26 1   
    21    11    27 1   
    22    12    13 1   
    23    12    28 1   
    24    13    14 2   
    25    13    17 1   
    26    14    15 1   
    27    14    18 1   
    28    15    16 2   
    29    15    29 1   
    30    16    17 1   
    31    18    19 3   
@<TRIPOS>SUBSTRUCTURE
     1 4VT         1 TEMP              0 ****  ****    0 ROOT
