@<TRIPOS>MOLECULE
4VT
   29    31     1     0     0
SMALL
abcg2


@<TRIPOS>ATOM
      1 O1          -2.2210    -3.3240     0.4830 o          1 4VT      -0.457000
      2 C2          -1.6070    -2.2830     0.5390 c          1 4VT       0.563000
      3 C3          -0.2920    -2.0740     1.0830 cc         1 4VT      -0.396200
      4 C4           0.3110    -0.8600     1.0970 cd         1 4VT       0.191800
      5 C5           1.6770    -0.6220     1.6660 c3         1 4VT      -0.006900
      6 C6           2.5930     0.0350     0.6630 ca         1 4VT      -0.110300
      7 C7           3.0820    -0.6960    -0.4180 ca         1 4VT      -0.103000
      8 C8           3.9050    -0.0960    -1.3580 ca         1 4VT      -0.103000
      9 C9           4.2460     1.2460    -1.2310 ca         1 4VT      -0.097000
     10 C10          3.7630     1.9810    -0.1590 ca         1 4VT      -0.103000
     11 C11          2.9390     1.3760     0.7850 ca         1 4VT      -0.103000
     12 N12         -0.3230     0.2270     0.5770 na         1 4VT      -0.782000
     13 C13         -1.5540     0.1120     0.0460 cc         1 4VT       0.286000
     14 C14         -2.4290     1.0060    -0.5490 cd         1 4VT      -0.205000
     15 C15         -3.5510     0.2080    -0.8820 cd         1 4VT       0.314900
     16 N16         -3.3910    -1.0390    -0.5340 nc         1 4VT      -0.470800
     17 N17         -2.1690    -1.0930     0.0320 n          1 4VT       0.125000
     18 C18         -2.2280     2.3800    -0.7640 ch         1 4VT       0.365000
     19 N19         -2.0610     3.5080    -0.9410 n1         1 4VT      -0.471000
     20 H1           0.2210    -2.9310     1.4940 ha         1 4VT       0.225000
     21 H2           1.5790     0.0070     2.5550 hc         1 4VT       0.078200
     22 H3           2.0830    -1.5780     1.9930 hc         1 4VT       0.078200
     23 H4           2.8180    -1.7420    -0.5230 ha         1 4VT       0.115500
     24 H5           4.2830    -0.6750    -2.1900 ha         1 4VT       0.120500
     25 H6           4.8880     1.7150    -1.9660 ha         1 4VT       0.120000
     26 H7           4.0270     3.0240    -0.0510 ha         1 4VT       0.120500
     27 H8           2.5690     1.9540     1.6240 ha         1 4VT       0.115500
     28 H9           0.1330     1.1300     0.5770 hn         1 4VT       0.538000
     29 H10         -4.4570     0.5380    -1.3670 h4         1 4VT       0.052100
@<TRIPOS>BOND
     1     1     2 2   
     2     2     3 1   
     3     2    17 1   
     4     3     4 2   
     5     3    20 1   
     6     4     5 1   
     7     4    12 1   
     8     5     6 1   
     9     5    21 1   
    10     5    22 1   
    11     6     7 ar  
    12     6    11 ar  
    13     7     8 ar  
    14     7    23 1   
    15     8     9 ar  
    16     8    24 1   
    17     9    10 ar  
    18     9    25 1   
    19    10    11 ar  
    20    10    26 1   
    21    11    27 1   
    22    12    13 1   
    23    12    28 1   
    24    13    14 2   
    25    13    17 1   
    26    14    15 1   
    27    14    18 1   
    28    15    16 2   
    29    15    29 1   
    30    16    17 1   
    31    18    19 3   
@<TRIPOS>SUBSTRUCTURE
     1 4VT         1 TEMP              0 ****  ****    0 ROOT
