@<TRIPOS>MOLECULE
4VU
   30    32     1     0     0
SMALL
No Charge or Current Charge


@<TRIPOS>ATOM
      1 C1           3.3210    -1.1810    -0.2180 ca         1 4VU      -0.167000
      2 N1          -1.1160     1.0610    -0.2850 n3         1 4VU      -0.682600
      3 C2           3.8760     0.0820     0.0410 ca         1 4VU       0.330900
      4 N2           3.1410     1.2150     0.0600 nb         1 4VU      -0.669000
      5 C4           1.8080     1.1090    -0.1720 ca         1 4VU       0.351900
      6 C5           1.1530    -0.1200    -0.4160 ca         1 4VU      -0.123300
      7 C6           1.9420    -1.2900    -0.4590 ca         1 4VU      -0.079000
      8 C7          -0.3610    -0.1680    -0.7040 c6         1 4VU       0.209800
      9 C9          -2.4770     1.0420    -0.9080 c6         1 4VU       0.145800
     10 C10         -1.0800    -1.4450    -0.1320 c6         1 4VU      -0.100400
     11 C11         -3.2620    -0.2380    -0.4780 c6         1 4VU      -0.106400
     12 C12         -2.4210    -1.0500     0.5460 c6         1 4VU      -0.068700
     13 C14         -2.0760    -0.1080     1.7320 c6         1 4VU      -0.106400
     14 H1           3.9580    -2.0610    -0.2360 ha         1 4VU       0.121000
     15 H3           4.9440     0.1910     0.2290 h4         1 4VU       0.017100
     16 H4           1.2580     2.0490    -0.1620 h4         1 4VU       0.037100
     17 H5           1.5050    -2.2610    -0.6800 ha         1 4VU       0.115000
     18 H6          -0.4330    -0.2400    -1.8010 h1         1 4VU       0.066700
     19 H17         -3.0460     1.9350    -0.6080 h1         1 4VU       0.055700
     20 H16         -2.4010     1.0710    -2.0060 h1         1 4VU       0.055700
     21 H8          -1.2550    -2.1700    -0.9390 hc         1 4VU       0.048200
     22 H7          -0.4490    -1.9530     0.6100 hc         1 4VU       0.048200
     23 H10         -4.2300     0.0450    -0.0410 hc         1 4VU       0.045950
     24 H11         -3.4850    -0.8550    -1.3590 hc         1 4VU       0.045950
     25 H9          -2.9670    -1.9380     0.8930 hc         1 4VU       0.057700
     26 H12         -0.2710     1.1210     1.6930 h1         1 4VU       0.055700
     27 H13         -1.7630     2.0430     1.5110 h1         1 4VU       0.055700
     28 H15         -2.9950     0.2380     2.2230 hc         1 4VU       0.045950
     29 H14         -1.4980    -0.6470     2.4950 hc         1 4VU       0.045950
     30 C13         -1.2580     1.1140     1.2080 c6         1 4VU       0.145800
@<TRIPOS>BOND
     1     1     3 ar  
     2     1     7 ar  
     3     1    14 1   
     4     2     8 1   
     5     2     9 1   
     6     2    30 1   
     7     3     4 ar  
     8     3    15 1   
     9     4     5 ar  
    10     5     6 ar  
    11     5    16 1   
    12     6     7 ar  
    13     6     8 1   
    14     7    17 1   
    15     8    10 1   
    16     8    18 1   
    17     9    11 1   
    18     9    19 1   
    19     9    20 1   
    20    10    12 1   
    21    10    21 1   
    22    10    22 1   
    23    11    12 1   
    24    11    23 1   
    25    11    24 1   
    26    12    13 1   
    27    12    25 1   
    28    13    28 1   
    29    13    29 1   
    30    13    30 1   
    31    26    30 1   
    32    27    30 1   
@<TRIPOS>SUBSTRUCTURE
     1 4VU         1 TEMP              0 ****  ****    0 ROOT
