@<TRIPOS>MOLECULE
4VU
   30    32     1     0     0
SMALL
abcg2


@<TRIPOS>ATOM
      1 C1           3.2730    -1.1460    -0.2570 ca         1 4VU      -0.167000
      2 N1          -1.0680     1.0200    -0.1990 n3         1 4VU      -0.682600
      3 C2           3.8170     0.1190    -0.0960 ca         1 4VU       0.330900
      4 N2           3.0820     1.2240    -0.0940 nb         1 4VU      -0.669000
      5 C4           1.7690     1.1020    -0.2540 ca         1 4VU       0.351900
      6 C5           1.1110    -0.1150    -0.4140 ca         1 4VU      -0.123300
      7 C6           1.9010    -1.2600    -0.4160 ca         1 4VU      -0.079000
      8 C7          -0.3810    -0.1910    -0.6410 c6         1 4VU       0.209800
      9 C9          -2.3880     1.0620    -0.8230 c6         1 4VU       0.145800
     10 C10         -1.0450    -1.4460    -0.0190 c6         1 4VU      -0.100400
     11 C11         -3.1660    -0.2510    -0.5700 c6         1 4VU      -0.106400
     12 C12         -2.4180    -1.0290     0.5150 c6         1 4VU      -0.068700
     13 C14         -2.1950    -0.1020     1.7100 c6         1 4VU      -0.106400
     14 H1           3.9110    -2.0190    -0.2550 ha         1 4VU       0.121000
     15 H3           4.8870     0.2440     0.0350 h4         1 4VU       0.017100
     16 H4           1.1930     2.0210    -0.2540 h4         1 4VU       0.037100
     17 H5           1.4560    -2.2390    -0.5460 ha         1 4VU       0.115000
     18 H6          -0.5210    -0.2380    -1.7280 h1         1 4VU       0.066700
     19 H17         -2.9230     1.9210    -0.4110 h1         1 4VU       0.055700
     20 H16         -2.2690     1.2480    -1.8920 h1         1 4VU       0.055700
     21 H8          -1.1350    -2.2430    -0.7600 hc         1 4VU       0.048200
     22 H7          -0.4440    -1.8430     0.8040 hc         1 4VU       0.048200
     23 H10         -4.1900    -0.0430    -0.2530 hc         1 4VU       0.045950
     24 H11         -3.2300    -0.8490    -1.4830 hc         1 4VU       0.045950
     25 H9          -2.9860    -1.9110     0.8150 hc         1 4VU       0.057700
     26 H12         -0.2400     0.8810     1.7050 h1         1 4VU       0.055700
     27 H13         -1.5820     1.9970     1.5670 h1         1 4VU       0.055700
     28 H15         -3.1490     0.3180     2.0420 hc         1 4VU       0.045950
     29 H14         -1.7810    -0.6560     2.5550 hc         1 4VU       0.045950
     30 C13         -1.2260     1.0130     1.2540 c6         1 4VU       0.145800
@<TRIPOS>BOND
     1     1     3 ar  
     2     1     7 ar  
     3     1    14 1   
     4     2     8 1   
     5     2     9 1   
     6     2    30 1   
     7     3     4 ar  
     8     3    15 1   
     9     4     5 ar  
    10     5     6 ar  
    11     5    16 1   
    12     6     7 ar  
    13     6     8 1   
    14     7    17 1   
    15     8    10 1   
    16     8    18 1   
    17     9    11 1   
    18     9    19 1   
    19     9    20 1   
    20    10    12 1   
    21    10    21 1   
    22    10    22 1   
    23    11    12 1   
    24    11    23 1   
    25    11    24 1   
    26    12    13 1   
    27    12    25 1   
    28    13    28 1   
    29    13    29 1   
    30    13    30 1   
    31    26    30 1   
    32    27    30 1   
@<TRIPOS>SUBSTRUCTURE
     1 4VU         1 TEMP              0 ****  ****    0 ROOT
