@<TRIPOS>MOLECULE
4VW
   54    56     1     0     0
SMALL
No Charge or Current Charge


@<TRIPOS>ATOM
      1 C1          -5.0820    -1.1470     0.8350 ca         1 4VW      -0.027000
      2 C2          -3.6460    -0.7190    -1.0810 ca         1 4VW      -0.027000
      3 C3           3.0740    -0.6770     1.9550 ca         1 4VW      -0.137000
      4 C4          -6.1520    -1.4260    -0.0330 ca         1 4VW      -0.201500
      5 C5          -4.7240    -1.0000    -1.9400 ca         1 4VW      -0.201500
      6 C6           3.8410    -1.8170     1.6450 ca         1 4VW      -0.131000
      7 C7          -3.8130    -0.7900     0.3250 ca         1 4VW      -0.194600
      8 C8           3.2860     0.1310    -0.3560 ca         1 4VW      -0.098600
      9 C9           2.7850     0.3000     0.9670 ca         1 4VW      -0.066300
     10 C10         -5.9720    -1.3540    -1.4180 ca         1 4VW       0.316000
     11 C11          4.3060    -1.9570     0.3350 ca         1 4VW       0.025100
     12 C12          4.0410    -1.0220    -0.6270 ca         1 4VW       0.063100
     13 C13         -2.6850    -0.4900     1.2890 c          1 4VW       0.617700
     14 C15          5.1840    -2.6710    -1.5600 c5         1 4VW       0.369600
     15 C18          1.9390     1.5160     1.3570 c3         1 4VW      -0.021100
     16 C19         -0.2440     2.8140     1.1490 c3         1 4VW      -0.064400
     17 C20         -0.2710     0.2230     1.4820 c3         1 4VW       0.096000
     18 C21         -1.6760     3.0310     0.5780 c3         1 4VW      -0.055700
     19 C22          0.4640     1.4480     0.8650 c3         1 4VW      -0.075700
     20 N23         -7.0130    -1.6270    -2.2580 nv         1 4VW      -1.094000
     21 N24         -1.4660    -0.1730     0.7310 ns         1 4VW      -0.490900
     22 O25          2.2390     0.8530    -2.3260 o          1 4VW      -0.708000
     23 O26         -2.8440    -0.5210     2.5020 o          1 4VW      -0.633100
     24 O27          3.6800     2.1810    -1.4240 o          1 4VW      -0.708000
     25 O28          5.0720    -2.9780    -0.1260 os         1 4VW      -0.370100
     26 O29          4.6190    -1.3390    -1.8160 os         1 4VW      -0.316100
     27 H1          -5.2450    -1.2090     1.9100 ha         1 4VW       0.126000
     28 H4          -7.1190    -1.6990     0.3790 ha         1 4VW       0.109000
     29 H2          -2.6940    -0.4460    -1.5270 ha         1 4VW       0.126000
     30 H5          -4.5800    -0.9400    -3.0150 ha         1 4VW       0.109000
     31 H3           2.6990    -0.5530     2.9690 ha         1 4VW       0.095000
     32 H6           4.0670    -2.5660     2.4000 ha         1 4VW       0.108000
     33 H181         1.9400     1.6400     2.4470 hc         1 4VW       0.054200
     34 H182         2.4110     2.4250     0.9650 hc         1 4VW       0.054200
     35 H231        -7.8650    -2.0390    -1.8830 hn         1 4VW       0.455500
     36 H232        -6.8410    -1.7330    -3.2560 hn         1 4VW       0.455500
     37 H24         -1.4090    -0.1900    -0.2770 hn         1 4VW       0.315500
     38 H151         6.2370    -2.6920    -1.8640 h2         1 4VW       0.042200
     39 H152         4.6120    -3.4140    -2.1280 h2         1 4VW       0.042200
     40 H161        -3.2670     4.5320     0.6670 hc         1 4VW       0.029200
     41 H162        -2.2430     4.4840     2.1140 hc         1 4VW       0.029200
     42 H163        -1.6290     5.2220     0.6180 hc         1 4VW       0.029200
     43 H21         -2.3420     2.2790     1.0140 hc         1 4VW       0.041700
     44 H171        -1.4640     1.8830    -1.2870 hc         1 4VW       0.029200
     45 H172        -2.7620     3.0800    -1.3220 hc         1 4VW       0.029200
     46 H173        -1.0700     3.6080    -1.4480 hc         1 4VW       0.029200
     47 H22          0.5040     1.3030    -0.2190 hc         1 4VW       0.089700
     48 H191         0.3920     3.6190     0.7610 hc         1 4VW       0.038700
     49 H192        -0.2800     2.9590     2.2370 hc         1 4VW       0.038700
     50 H201         0.3960    -0.6480     1.4880 h1         1 4VW       0.052700
     51 H202        -0.5300     0.4450     2.5260 h1         1 4VW       0.052700
     52 C14          3.0460     1.1340    -1.4510 c          1 4VW       0.723600
     53 C16         -2.2370     4.4020     1.0200 c3         1 4VW      -0.086600
     54 C17         -1.7440     2.8910    -0.9620 c3         1 4VW      -0.086600
@<TRIPOS>BOND
     1     1     4 ar  
     2     1     7 ar  
     3     1    27 1   
     4     2     5 ar  
     5     2     7 ar  
     6     2    29 1   
     7     3     6 ar  
     8     3     9 ar  
     9     3    31 1   
    10     4    10 ar  
    11     4    28 1   
    12     5    10 ar  
    13     5    30 1   
    14     6    11 ar  
    15     6    32 1   
    16     7    13 1   
    17     8     9 ar  
    18     8    12 ar  
    19     8    52 1   
    20     9    15 1   
    21    10    20 1   
    22    11    12 ar  
    23    11    25 1   
    24    12    26 1   
    25    13    21 1   
    26    13    23 2   
    27    14    25 1   
    28    14    26 1   
    29    14    38 1   
    30    14    39 1   
    31    15    19 1   
    32    15    33 1   
    33    15    34 1   
    34    16    18 1   
    35    16    19 1   
    36    16    48 1   
    37    16    49 1   
    38    17    19 1   
    39    17    21 1   
    40    17    50 1   
    41    17    51 1   
    42    18    43 1   
    43    18    53 1   
    44    18    54 1   
    45    19    47 1   
    46    20    35 1   
    47    20    36 1   
    48    21    37 1   
    49    22    52 1   
    50    24    52 1   
    51    40    53 1   
    52    41    53 1   
    53    42    53 1   
    54    44    54 1   
    55    45    54 1   
    56    46    54 1   
@<TRIPOS>SUBSTRUCTURE
     1 4VW         1 TEMP              0 ****  ****    0 ROOT
