@<TRIPOS>MOLECULE
4VW
   54    56     1     0     0
SMALL
bcc


@<TRIPOS>ATOM
      1 C1          -5.0150    -1.2840     0.8930 ca         1 4VW      -0.045000
      2 C2          -3.8040    -0.4160    -0.9740 ca         1 4VW      -0.045000
      3 C3           3.0620    -0.7690     1.9730 ca         1 4VW      -0.155000
      4 C4          -6.0730    -1.6050     0.0670 ca         1 4VW      -0.219500
      5 C5          -4.8600    -0.7200    -1.8110 ca         1 4VW      -0.219500
      6 C6           3.8630    -1.8580     1.6090 ca         1 4VW      -0.149000
      7 C7          -3.8520    -0.6960     0.3930 ca         1 4VW      -0.194600
      8 C8           3.1990     0.2130    -0.2450 ca         1 4VW      -0.098600
      9 C9           2.7300     0.2510     1.0880 ca         1 4VW      -0.066300
     10 C10         -6.0200    -1.3280    -1.3080 ca         1 4VW       0.177600
     11 C11          4.2980    -1.8820     0.3100 ca         1 4VW       0.025100
     12 C12          3.9580    -0.8820    -0.5870 ca         1 4VW       0.063100
     13 C13         -2.7550    -0.3630     1.3390 c          1 4VW       0.684700
     14 C15          5.0890    -2.4500    -1.6810 c5         1 4VW       0.323200
     15 C18          1.8290     1.3700     1.5360 c3         1 4VW      -0.021100
     16 C19         -0.2630     2.6750     1.1040 c3         1 4VW      -0.064400
     17 C20         -0.3420     0.1470     1.5350 c3         1 4VW       0.096000
     18 C21         -1.5690     2.9480     0.3540 c3         1 4VW      -0.055700
     19 C22          0.4210     1.3180     0.9130 c3         1 4VW      -0.075700
     20 N23         -7.0860    -1.5910    -2.1200 nv         1 4VW      -0.845200
     21 N24         -1.5280    -0.2360     0.8020 ns         1 4VW      -0.557900
     22 O25          2.3930     0.9320    -2.3330 o          1 4VW      -0.813300
     23 O26         -2.9760    -0.2140     2.5370 o          1 4VW      -0.633100
     24 O27          3.2980     2.4510    -0.9710 o          1 4VW      -0.813300
     25 O28          5.1080    -2.7860    -0.3010 os         1 4VW      -0.346900
     26 O29          4.5610    -1.1390    -1.7810 os         1 4VW      -0.292900
     27 H1          -5.0900    -1.5050     1.9500 ha         1 4VW       0.144000
     28 H4          -6.9570    -2.0740     0.4840 ha         1 4VW       0.127000
     29 H2          -2.9430     0.0760    -1.4110 ha         1 4VW       0.144000
     30 H5          -4.7950    -0.4780    -2.8650 ha         1 4VW       0.127000
     31 H3           2.6860    -0.7210     2.9880 ha         1 4VW       0.113000
     32 H6           4.1240    -2.6310     2.3200 ha         1 4VW       0.126000
     33 H181         1.7360     1.3510     2.6270 hc         1 4VW       0.054200
     34 H182         2.2850     2.3250     1.2740 hc         1 4VW       0.054200
     35 H231        -7.7660    -2.2550    -1.7890 hn         1 4VW       0.400300
     36 H232        -6.9110    -1.6580    -3.1090 hn         1 4VW       0.400300
     37 H24         -1.3910    -0.5180    -0.1550 hn         1 4VW       0.315500
     38 H151         6.1030    -2.4730    -2.0810 h2         1 4VW       0.042200
     39 H152         4.4490    -3.1540    -2.2270 h2         1 4VW       0.042200
     40 H161        -3.0040     4.5770     0.1940 hc         1 4VW       0.029200
     41 H162        -2.1940     4.4900     1.7570 hc         1 4VW       0.029200
     42 H163        -1.3300     5.1070     0.3500 hc         1 4VW       0.029200
     43 H21         -2.3380     2.2520     0.6980 hc         1 4VW       0.041700
     44 H171        -1.1490     1.7650    -1.4400 hc         1 4VW       0.029200
     45 H172        -2.3400     3.0370    -1.6730 hc         1 4VW       0.029200
     46 H173        -0.6280     3.4400    -1.5360 hc         1 4VW       0.029200
     47 H22          0.5390     1.1260    -0.1590 hc         1 4VW       0.089700
     48 H191         0.4540     3.4480     0.8010 hc         1 4VW       0.038700
     49 H192        -0.4330     2.8300     2.1770 hc         1 4VW       0.038700
     50 H201         0.3230    -0.7200     1.6020 h1         1 4VW       0.052700
     51 H202        -0.6350     0.3990     2.5540 h1         1 4VW       0.052700
     52 C14          2.9300     1.3030    -1.2760 c          1 4VW       0.934200
     53 C16         -2.0530     4.3580     0.6830 c3         1 4VW      -0.086600
     54 C17         -1.4140     2.7830    -1.1540 c3         1 4VW      -0.086600
@<TRIPOS>BOND
     1     1     4 ar  
     2     1     7 ar  
     3     1    27 1   
     4     2     5 ar  
     5     2     7 ar  
     6     2    29 1   
     7     3     6 ar  
     8     3     9 ar  
     9     3    31 1   
    10     4    10 ar  
    11     4    28 1   
    12     5    10 ar  
    13     5    30 1   
    14     6    11 ar  
    15     6    32 1   
    16     7    13 1   
    17     8     9 ar  
    18     8    12 ar  
    19     8    52 1   
    20     9    15 1   
    21    10    20 1   
    22    11    12 ar  
    23    11    25 1   
    24    12    26 1   
    25    13    21 1   
    26    13    23 2   
    27    14    25 1   
    28    14    26 1   
    29    14    38 1   
    30    14    39 1   
    31    15    19 1   
    32    15    33 1   
    33    15    34 1   
    34    16    18 1   
    35    16    19 1   
    36    16    48 1   
    37    16    49 1   
    38    17    19 1   
    39    17    21 1   
    40    17    50 1   
    41    17    51 1   
    42    18    43 1   
    43    18    53 1   
    44    18    54 1   
    45    19    47 1   
    46    20    35 1   
    47    20    36 1   
    48    21    37 1   
    49    22    52 1   
    50    24    52 1   
    51    40    53 1   
    52    41    53 1   
    53    42    53 1   
    54    44    54 1   
    55    45    54 1   
    56    46    54 1   
@<TRIPOS>SUBSTRUCTURE
     1 4VW         1 TEMP              0 ****  ****    0 ROOT
