@<TRIPOS>MOLECULE
4VX
   46    50     1     0     0
SMALL
No Charge or Current Charge


@<TRIPOS>ATOM
      1 C11         -7.7760    39.1180    27.9190 c3         1 4VX       0.149900
      2 C10         -8.8330    42.3290    31.3380 c5         1 4VX       0.133600
      3 C9          -8.9720    41.1380    30.3270 c5         1 4VX      -0.006200
      4 C8          -6.5800    41.5020    30.4610 cc         1 4VX      -0.011600
      5 C7          -7.6000    40.9390    29.7500 cd         1 4VX      -0.089300
      6 C2          -3.0000    40.6290    29.5950 ca         1 4VX      -0.043900
      7 S1          -7.0350    42.4190    31.8770 ss         1 4VX      -0.279600
      8 C6          -5.3420    41.0260    29.9380 ca         1 4VX      -0.057800
      9 C5          -5.6730    40.1810    28.8990 ca         1 4VX      -0.033200
     10 C3          -3.3200    39.7600    28.5240 ca         1 4VX      -0.066000
     11 C4          -4.6670    39.5270    28.1670 ca         1 4VX      -0.130000
     12 C1          -4.0210    41.2770    30.3220 ca         1 4VX      -0.024000
     13 N1          -7.0660    40.1010    28.7510 na         1 4VX      -0.067700
     14 C12         -8.2110    37.9110    28.7060 cc         1 4VX      -0.266300
     15 S2          -7.0240    36.8600    29.4800 ss         1 4VX       0.373000
     16 C13         -8.3070    35.8450    30.1210 cc         1 4VX      -0.304600
     17 C14         -9.5530    36.3100    29.7560 cd         1 4VX      -0.099000
     18 C15         -9.4910    37.4810    28.9560 cd         1 4VX      -0.128000
     19 C16         -8.0050    34.6620    30.9450 c          1 4VX       0.632700
     20 O1          -6.8700    34.3110    31.2390 o          1 4VX      -0.575100
     21 O2          -8.9590    32.6570    32.0000 oh         1 4VX      -0.406100
     22 C17         -9.3080    43.5900    30.6040 ca         1 4VX      -0.082300
     23 C18         -8.5810    44.1460    29.5270 ca         1 4VX      -0.096500
     24 C19         -9.0420    45.3010    28.8710 ca         1 4VX      -0.110000
     25 C20        -10.2350    45.9160    29.2820 ca         1 4VX      -0.104000
     26 C21        -10.9660    45.3750    30.3510 ca         1 4VX      -0.110000
     27 C22        -10.5050    44.2200    31.0070 ca         1 4VX      -0.096500
     28 H1          -7.1360    38.8070    27.0850 h1         1 4VX       0.072200
     29 H2          -8.6580    39.6090    27.4890 h1         1 4VX       0.072200
     30 H3          -9.4580    42.1590    32.2250 h1         1 4VX       0.083700
     31 H4          -9.7310    41.3240    29.5600 hc         1 4VX       0.069200
     32 H5          -9.2910    40.2320    30.8550 hc         1 4VX       0.069200
     33 H6          -2.5230    39.2660    27.9730 ha         1 4VX       0.129000
     34 H7         -10.0230    34.1440    30.9590 hn         1 4VX       0.338500
     35 H8          -4.9060    38.8560    27.3470 ha         1 4VX       0.117000
     36 H9          -3.7930    41.9450    31.1480 ha         1 4VX       0.139000
     37 H16         -8.0250    32.4220    31.7850 ho         1 4VX       0.435000
     38 H17         -7.6550    43.6880    29.1930 ha         1 4VX       0.115000
     39 H18         -8.4730    45.7180    28.0430 ha         1 4VX       0.114000
     40 H19        -10.5920    46.8090    28.7740 ha         1 4VX       0.113000
     41 H20        -11.8910    45.8490    30.6720 ha         1 4VX       0.114000
     42 H21        -11.0830    43.8120    31.8330 ha         1 4VX       0.115000
     43 H10        -10.4940    35.8500    30.0420 ha         1 4VX       0.132000
     44 H11        -10.3750    37.9900    28.5810 ha         1 4VX       0.136000
     45 Br1         -1.1700    40.9260    30.0620 br         1 4VX      -0.104100
     46 N2          -9.1140    33.9480    31.3700 ns         1 4VX      -0.363400
@<TRIPOS>BOND
     1     1    13 1   
     2     1    14 1   
     3     1    28 1   
     4     1    29 1   
     5     2     3 1   
     6     2     7 1   
     7     2    22 1   
     8     2    30 1   
     9     3     5 1   
    10     3    31 1   
    11     3    32 1   
    12     4     5 2   
    13     4     7 1   
    14     4     8 1   
    15     5    13 1   
    16     6    10 ar  
    17     6    12 ar  
    18     6    45 1   
    19     8     9 ar  
    20     8    12 ar  
    21     9    11 ar  
    22     9    13 1   
    23    10    11 ar  
    24    10    33 1   
    25    11    35 1   
    26    12    36 1   
    27    14    15 1   
    28    14    18 2   
    29    15    16 1   
    30    16    17 2   
    31    16    19 1   
    32    17    18 1   
    33    17    43 1   
    34    18    44 1   
    35    19    20 2   
    36    19    46 1   
    37    21    37 1   
    38    21    46 1   
    39    22    23 ar  
    40    22    27 ar  
    41    23    24 ar  
    42    23    38 1   
    43    24    25 ar  
    44    24    39 1   
    45    25    26 ar  
    46    25    40 1   
    47    26    27 ar  
    48    26    41 1   
    49    27    42 1   
    50    34    46 1   
@<TRIPOS>SUBSTRUCTURE
     1 4VX         1 TEMP              0 ****  ****    0 ROOT
