@<TRIPOS>MOLECULE
4VX
   46    50     1     0     0
SMALL
abcg2


@<TRIPOS>ATOM
      1 C11         -7.8590    39.1520    28.2620 c3         1 4VX       0.149900
      2 C10         -9.0000    42.4370    31.2800 c5         1 4VX       0.133600
      3 C9          -9.0530    41.1120    30.4840 c5         1 4VX      -0.006200
      4 C8          -6.6730    41.4990    30.7540 cc         1 4VX      -0.011600
      5 C7          -7.6520    40.8540    30.0670 cd         1 4VX      -0.089300
      6 C2          -3.1230    40.8480    29.6680 ca         1 4VX      -0.043900
      7 S1          -7.2770    42.5820    31.9890 ss         1 4VX      -0.279600
      8 C6          -5.4250    41.1040    30.2000 ca         1 4VX      -0.057800
      9 C5          -5.7420    40.1880    29.1630 ca         1 4VX      -0.033200
     10 C3          -3.4320    39.9360    28.6490 ca         1 4VX      -0.066000
     11 C4          -4.7470    39.6010    28.3860 ca         1 4VX      -0.130000
     12 C1          -4.0930    41.4370    30.4520 ca         1 4VX      -0.024000
     13 N1          -7.1100    40.0750    29.0840 na         1 4VX      -0.067700
     14 C12         -8.2480    37.8900    28.9620 cc         1 4VX      -0.266300
     15 S2          -7.0890    36.7420    29.4970 ss         1 4VX       0.373000
     16 C13         -8.3200    35.6900    30.0790 cc         1 4VX      -0.304600
     17 C14         -9.5650    36.2110    29.8650 cd         1 4VX      -0.099000
     18 C15         -9.5210    37.4760    29.2350 cd         1 4VX      -0.128000
     19 C16         -7.8620    34.4110    30.6560 c          1 4VX       0.632700
     20 O1          -6.6740    34.1320    30.7130 o          1 4VX      -0.575100
     21 O2          -8.5510    32.3690    31.5950 oh         1 4VX      -0.406100
     22 C17         -9.3320    43.6560    30.4630 ca         1 4VX      -0.082300
     23 C18         -8.7980    43.8580    29.1890 ca         1 4VX      -0.096500
     24 C19         -9.1220    44.9900    28.4580 ca         1 4VX      -0.110000
     25 C20         -9.9890    45.9410    28.9870 ca         1 4VX      -0.104000
     26 C21        -10.5270    45.7490    30.2500 ca         1 4VX      -0.110000
     27 C22        -10.1990    44.6130    30.9810 ca         1 4VX      -0.096500
     28 H1          -7.2900    38.9500    27.3520 h1         1 4VX       0.072200
     29 H2          -8.7730    39.6540    27.9420 h1         1 4VX       0.072200
     30 H3          -9.6640    42.3920    32.1380 h1         1 4VX       0.083700
     31 H4          -9.7600    41.1930    29.6560 hc         1 4VX       0.069200
     32 H5          -9.4050    40.2980    31.1250 hc         1 4VX       0.069200
     33 H6          -2.6460    39.4860    28.0580 ha         1 4VX       0.129000
     34 H7          -9.8180    33.7650    30.9230 hn         1 4VX       0.338500
     35 H8          -4.9710    38.8920    27.5990 ha         1 4VX       0.117000
     36 H9          -3.8380    42.1400    31.2350 ha         1 4VX       0.139000
     37 H16         -8.2520    31.8490    30.8340 ho         1 4VX       0.435000
     38 H17         -8.1270    43.1280    28.7520 ha         1 4VX       0.115000
     39 H18         -8.6990    45.1330    27.4720 ha         1 4VX       0.114000
     40 H19        -10.2460    46.8220    28.4120 ha         1 4VX       0.113000
     41 H20        -11.2080    46.4800    30.6680 ha         1 4VX       0.114000
     42 H21        -10.6230    44.4750    31.9680 ha         1 4VX       0.115000
     43 H10        -10.4910    35.7150    30.1260 ha         1 4VX       0.132000
     44 H11        -10.3980    38.0590    28.9880 ha         1 4VX       0.136000
     45 BR1         -1.3040    41.2870    29.9660 br         1 4VX      -0.104100
     46 N2          -8.8400    33.6120    31.1250 ns         1 4VX      -0.363400
@<TRIPOS>BOND
     1     1    13 1   
     2     1    14 1   
     3     1    28 1   
     4     1    29 1   
     5     2     3 1   
     6     2     7 1   
     7     2    22 1   
     8     2    30 1   
     9     3     5 1   
    10     3    31 1   
    11     3    32 1   
    12     4     5 2   
    13     4     7 1   
    14     4     8 1   
    15     5    13 1   
    16     6    10 ar  
    17     6    12 ar  
    18     6    45 1   
    19     8     9 ar  
    20     8    12 ar  
    21     9    11 ar  
    22     9    13 1   
    23    10    11 ar  
    24    10    33 1   
    25    11    35 1   
    26    12    36 1   
    27    14    15 1   
    28    14    18 2   
    29    15    16 1   
    30    16    17 2   
    31    16    19 1   
    32    17    18 1   
    33    17    43 1   
    34    18    44 1   
    35    19    20 2   
    36    19    46 1   
    37    21    37 1   
    38    21    46 1   
    39    22    23 ar  
    40    22    27 ar  
    41    23    24 ar  
    42    23    38 1   
    43    24    25 ar  
    44    24    39 1   
    45    25    26 ar  
    46    25    40 1   
    47    26    27 ar  
    48    26    41 1   
    49    27    42 1   
    50    34    46 1   
@<TRIPOS>SUBSTRUCTURE
     1 4VX         1 TEMP              0 ****  ****    0 ROOT
