@<TRIPOS>MOLECULE
4VY
   23    23     1     0     0
SMALL
bcc


@<TRIPOS>ATOM
      1 C1           3.3420     1.8240     0.1960 c3         1 4VY       0.209100
      2 N2           2.6890     0.6800    -0.3980 nh         1 4VY      -0.775300
      3 C3           3.5370    -0.4210    -0.8060 c3         1 4VY       0.225800
      4 C4           4.1830    -1.1490     0.3600 c3         1 4VY       0.111400
      5 O5           3.1780    -1.6610     1.2020 oh         1 4VY      -0.582800
      6 C6           1.3430     0.5370    -0.2880 ca         1 4VY       0.714200
      7 C7           0.5480     1.5170     0.3470 ca         1 4VY      -0.322300
      8 C8          -0.8180     1.3490     0.3910 ca         1 4VY      -0.026000
      9 C9          -1.3800     0.2160    -0.1860 ca         1 4VY      -0.212200
     10 C10         -0.5330    -0.7020    -0.7820 ca         1 4VY       0.490200
     11 N11          0.7780    -0.5460    -0.8310 nb         1 4VY      -0.744000
     12 BR          -3.2410    -0.0740    -0.1550 br         1 4VY      -0.095100
     13 H11C         2.9180     2.7590    -0.1730 h1         1 4VY       0.038033
     14 H12C         3.2830     1.8300     1.2880 h1         1 4VY       0.038033
     15 H13C         4.3930     1.8140    -0.0810 h1         1 4VY       0.038033
     16 H31C         2.9510    -1.1160    -1.4030 h1         1 4VY       0.071200
     17 H32C         4.3340    -0.0330    -1.4450 h1         1 4VY       0.071200
     18 H41C         4.8200    -1.9420    -0.0560 h1         1 4VY       0.018200
     19 H42C         4.8480    -0.4630     0.9000 h1         1 4VY       0.018200
     20 H5           3.6040    -2.0500     1.9710 ho         1 4VY       0.401000
     21 H7           0.9810     2.3930     0.8050 ha         1 4VY       0.140000
     22 H8          -1.4310     2.0970     0.8760 ha         1 4VY       0.144000
     23 H10         -0.9260    -1.6030    -1.2410 h4         1 4VY       0.028100
@<TRIPOS>BOND
     1     1     2 1   
     2     1    13 1   
     3     1    14 1   
     4     1    15 1   
     5     2     3 1   
     6     2     6 1   
     7     3     4 1   
     8     3    16 1   
     9     3    17 1   
    10     4     5 1   
    11     4    18 1   
    12     4    19 1   
    13     5    20 1   
    14     6     7 ar  
    15     6    11 ar  
    16     7     8 ar  
    17     7    21 1   
    18     8     9 ar  
    19     8    22 1   
    20     9    10 ar  
    21     9    12 1   
    22    10    11 ar  
    23    10    23 1   
@<TRIPOS>SUBSTRUCTURE
     1 4VY         1 TEMP              0 ****  ****    0 ROOT
