@<TRIPOS>MOLECULE
4VY
   23    23     1     0     0
SMALL
No Charge or Current Charge


@<TRIPOS>ATOM
      1 C1           3.3800     1.9460    -0.1040 c3         1 4VY       0.209100
      2 N2           2.7000     0.6830    -0.4630 nh         1 4VY      -0.775300
      3 C3           3.5710    -0.5020    -0.7210 c3         1 4VY       0.225800
      4 C4           4.1840    -1.1600     0.5500 c3         1 4VY       0.134600
      5 O5           3.1710    -1.7000     1.4200 oh         1 4VY      -0.645000
      6 C6           1.3040     0.5580    -0.3380 ca         1 4VY       0.648900
      7 C7           0.5640     1.3220     0.5850 ca         1 4VY      -0.239000
      8 C8          -0.8280     1.1670     0.6500 ca         1 4VY      -0.008000
      9 C9          -1.4250     0.2500    -0.2240 ca         1 4VY      -0.146900
     10 C10         -0.6110    -0.4690    -1.1190 ca         1 4VY       0.424900
     11 N11          0.7300    -0.3180    -1.1820 nb         1 4VY      -0.744000
     12 Br          -3.3200    -0.0190    -0.1960 br         1 4VY      -0.095100
     13 H11C         2.7810     2.8100    -0.4210 h1         1 4VY       0.038033
     14 H12C         3.5400     2.0030     0.9810 h1         1 4VY       0.038033
     15 H13C         4.3560     2.0180    -0.6030 h1         1 4VY       0.038033
     16 H31C         3.0350    -1.2790    -1.2810 h1         1 4VY       0.071200
     17 H32C         4.4020    -0.2000    -1.3740 h1         1 4VY       0.071200
     18 H41C         4.8660    -1.9600     0.2330 h1         1 4VY       0.018200
     19 H42C         4.7820    -0.4120     1.0860 h1         1 4VY       0.018200
     20 H5           3.6320    -2.0540     2.2130 ho         1 4VY       0.440000
     21 H7           1.0610     2.0170     1.2520 ha         1 4VY       0.122000
     22 H8          -1.4240     1.7410     1.3580 ha         1 4VY       0.126000
     23 H10         -1.0500    -1.1870    -1.8110 h4         1 4VY       0.028100
@<TRIPOS>BOND
     1     1     2 1   
     2     1    13 1   
     3     1    14 1   
     4     1    15 1   
     5     2     3 1   
     6     2     6 1   
     7     3     4 1   
     8     3    16 1   
     9     3    17 1   
    10     4     5 1   
    11     4    18 1   
    12     4    19 1   
    13     5    20 1   
    14     6     7 ar  
    15     6    11 ar  
    16     7     8 ar  
    17     7    21 1   
    18     8     9 ar  
    19     8    22 1   
    20     9    10 ar  
    21     9    12 1   
    22    10    11 ar  
    23    10    23 1   
@<TRIPOS>SUBSTRUCTURE
     1 4VY         1 TEMP              0 ****  ****    0 ROOT
