@<TRIPOS>MOLECULE
4VZ
   29    30     1     0     0
SMALL
No Charge or Current Charge


@<TRIPOS>ATOM
      1 C01         21.2340    24.6110   -30.7840 c3         1 4VZ      -0.097100
      2 C02         20.2370    23.4410   -30.7880 c3         1 4VZ       0.171600
      3 O03         19.1710    23.7820   -31.6920 os         1 4VZ      -0.376100
      4 C04         18.1070    22.9290   -31.9340 ca         1 4VZ       0.046100
      5 C05         17.1190    23.3440   -32.8510 ca         1 4VZ       0.156100
      6 O06         17.2370    24.5560   -33.4670 oh         1 4VZ      -0.523100
      7 C07         16.0170    22.5230   -33.1260 ca         1 4VZ      -0.139000
      8 C08         15.8950    21.2740   -32.4920 ca         1 4VZ      -0.062000
      9 C09         16.8800    20.8380   -31.5850 ca         1 4VZ      -0.107800
     10 C10         16.7230    19.5130   -30.9190 ce         1 4VZ       0.004800
     11 C11         17.6620    18.5300   -30.6820 cd         1 4VZ      -0.173600
     12 S12         19.3580    18.6600   -31.1580 ss         1 4VZ      -0.059200
     13 C13         19.7390    17.0420   -30.5310 cs         1 4VZ       0.332000
     14 S14         21.2250    16.2810   -30.5540 s          1 4VZ      -0.415400
     15 N15         18.5770    16.5390   -30.0290 ns         1 4VZ      -0.398500
     16 C16         17.4010    17.2260   -30.0510 c          1 4VZ       0.573200
     17 O17         16.3380    16.8100   -29.6190 o          1 4VZ      -0.483000
     18 C18         17.9790    21.6740   -31.2970 ca         1 4VZ      -0.117000
     19 H1          22.0680    24.3960   -30.1070 hc         1 4VZ       0.050700
     20 H2          21.6400    24.7740   -31.7890 hc         1 4VZ       0.050700
     21 H3          20.7460    25.5330   -30.4480 hc         1 4VZ       0.050700
     22 H4          19.8530    23.2860   -29.7710 h1         1 4VZ       0.039700
     23 H5          20.7490    22.5260   -31.1150 h1         1 4VZ       0.039700
     24 H6          18.0690    24.9550   -33.1260 ho         1 4VZ       0.490000
     25 H7          15.2570    22.8520   -33.8300 ha         1 4VZ       0.139000
     26 H8          15.0380    20.6420   -32.7130 ha         1 4VZ       0.123000
     27 H9          15.7020    19.2690   -30.6170 ha         1 4VZ       0.199000
     28 H11         18.5740    15.6140   -29.6220 hn         1 4VZ       0.361500
     29 H12         18.7150    21.3450   -30.5700 ha         1 4VZ       0.125000
@<TRIPOS>BOND
     1     1     2 1   
     2     1    19 1   
     3     1    20 1   
     4     1    21 1   
     5     2     3 1   
     6     2    22 1   
     7     2    23 1   
     8     3     4 1   
     9     4     5 ar  
    10     4    18 ar  
    11     5     6 1   
    12     5     7 ar  
    13     6    24 1   
    14     7     8 ar  
    15     7    25 1   
    16     8     9 ar  
    17     8    26 1   
    18     9    10 1   
    19     9    18 ar  
    20    10    11 2   
    21    10    27 1   
    22    11    12 1   
    23    11    16 1   
    24    12    13 1   
    25    13    14 2   
    26    13    15 1   
    27    15    16 1   
    28    15    28 1   
    29    16    17 2   
    30    18    29 1   
@<TRIPOS>SUBSTRUCTURE
     1 4VZ         1 TEMP              0 ****  ****    0 ROOT
