@<TRIPOS>MOLECULE
4VZ
   29    30     1     0     0
SMALL
abcg2


@<TRIPOS>ATOM
      1 C01         21.2670    24.5160   -31.0070 c3         1 4VZ      -0.097100
      2 C02         20.2990    23.3590   -31.0370 c3         1 4VZ       0.171600
      3 O03         19.1380    23.7710   -31.7500 os         1 4VZ      -0.376100
      4 C04         18.1180    22.9090   -31.9040 ca         1 4VZ       0.046100
      5 C05         17.0140    23.4350   -32.6090 ca         1 4VZ       0.156100
      6 O06         17.0270    24.6860   -33.0800 oh         1 4VZ      -0.523100
      7 C07         15.8920    22.6460   -32.8080 ca         1 4VZ      -0.139000
      8 C08         15.8590    21.3500   -32.3250 ca         1 4VZ      -0.062000
      9 C09         16.9510    20.8040   -31.6470 ca         1 4VZ      -0.107800
     10 C10         16.8410    19.4340   -31.2120 ce         1 4VZ       0.004800
     11 C11         17.7610    18.5770   -30.7300 cd         1 4VZ      -0.173600
     12 S12         19.4840    18.8130   -30.4950 ss         1 4VZ      -0.059200
     13 C13         19.7120    17.1750   -29.9490 cs         1 4VZ       0.332000
     14 S14         21.1640    16.5690   -29.5070 s          1 4VZ      -0.415400
     15 N15         18.5310    16.5210   -29.9530 ns         1 4VZ      -0.398500
     16 C16         17.3930    17.1990   -30.3600 c          1 4VZ       0.573200
     17 O17         16.2930    16.7020   -30.3940 o          1 4VZ      -0.483000
     18 C18         18.0830    21.6120   -31.4360 ca         1 4VZ      -0.117000
     19 H1          22.1640    24.2170   -30.4660 hc         1 4VZ       0.050700
     20 H2          21.5650    24.8130   -32.0130 hc         1 4VZ       0.050700
     21 H3          20.8410    25.3800   -30.4980 hc         1 4VZ       0.050700
     22 H4          20.0230    23.0610   -30.0200 h1         1 4VZ       0.039700
     23 H5          20.7490    22.4910   -31.5300 h1         1 4VZ       0.039700
     24 H6          17.8660    25.1170   -32.8700 ho         1 4VZ       0.490000
     25 H7          15.0440    23.0560   -33.3410 ha         1 4VZ       0.139000
     26 H8          14.9740    20.7470   -32.4860 ha         1 4VZ       0.123000
     27 H9          15.8450    19.0110   -31.3060 ha         1 4VZ       0.199000
     28 H11         18.4850    15.5520   -29.6600 hn         1 4VZ       0.361500
     29 H12         18.9270    21.2430   -30.8730 ha         1 4VZ       0.125000
@<TRIPOS>BOND
     1     1     2 1   
     2     1    19 1   
     3     1    20 1   
     4     1    21 1   
     5     2     3 1   
     6     2    22 1   
     7     2    23 1   
     8     3     4 1   
     9     4     5 ar  
    10     4    18 ar  
    11     5     6 1   
    12     5     7 ar  
    13     6    24 1   
    14     7     8 ar  
    15     7    25 1   
    16     8     9 ar  
    17     8    26 1   
    18     9    10 1   
    19     9    18 ar  
    20    10    11 2   
    21    10    27 1   
    22    11    12 1   
    23    11    16 1   
    24    12    13 1   
    25    13    14 2   
    26    13    15 1   
    27    15    16 1   
    28    15    28 1   
    29    16    17 2   
    30    18    29 1   
@<TRIPOS>SUBSTRUCTURE
     1 4VZ         1 TEMP              0 ****  ****    0 ROOT
