@<TRIPOS>MOLECULE
4W0
   48    51     1     0     0
SMALL
bcc


@<TRIPOS>ATOM
      1 C1          -5.7090    -3.1030     1.1730 ca         1 4W0      -0.038000
      2 C2          -4.5160    -2.4260     1.2130 ca         1 4W0      -0.224000
      3 C3          -4.4070    -1.1880     0.5640 ca         1 4W0       0.211600
      4 C4          -5.4880    -0.6240    -0.1350 ca         1 4W0      -0.256600
      5 C5          -6.6820    -1.3650    -0.1340 ca         1 4W0       0.232900
      6 C6          -6.8120    -2.5750     0.4970 ca         1 4W0      -0.235000
      7 O1           5.9200    -1.6470     0.3030 os         1 4W0      -0.383900
      8 C7          -5.3290     0.6680    -0.8170 c          1 4W0       0.593900
      9 C8          -4.0350     1.3120    -0.6760 cc         1 4W0      -0.246400
     10 C9          -3.0270     0.6880     0.0010 cd         1 4W0       0.203800
     11 C10         -1.6650     1.2360     0.1650 ca         1 4W0      -0.082800
     12 C11         -1.1140     1.3810     1.4360 ca         1 4W0      -0.102000
     13 C12          0.1680     1.8850     1.5890 ca         1 4W0      -0.124500
     14 C13          0.9330     2.2430     0.4840 ca         1 4W0      -0.062300
     15 C14          0.3800     2.0870    -0.7840 ca         1 4W0      -0.124500
     16 C15         -0.9030     1.5920    -0.9460 ca         1 4W0      -0.102000
     17 O2          -6.2330     1.1920    -1.4640 o          1 4W0      -0.547100
     18 N           -3.2250    -0.5140     0.6000 na         1 4W0      -0.596400
     19 C16          2.3450     2.7460     0.6540 c3         1 4W0       0.012200
     20 C17          3.3360     1.6150     0.5480 ca         1 4W0      -0.075300
     21 C18          3.6910     0.8740     1.6710 ca         1 4W0      -0.107500
     22 C19          4.5700    -0.1930     1.5760 ca         1 4W0      -0.130000
     23 C20          5.0920    -0.5310     0.3400 ca         1 4W0       0.112100
     24 C21          4.7520     0.1800    -0.7990 ca         1 4W0      -0.130000
     25 C22          3.8810     1.2540    -0.6800 ca         1 4W0      -0.107500
     26 C23         -3.8910     2.6710    -1.2890 c3         1 4W0      -0.027900
     27 F1          -7.7520    -0.8820    -0.7690 f          1 4W0      -0.112900
     28 C24          7.1490    -1.5550    -0.2160 c3         1 4W0       0.858700
     29 F2           7.7780    -0.4360     0.1390 f          1 4W0      -0.229300
     30 F3           7.8500    -2.5920     0.2200 f          1 4W0      -0.229300
     31 F4           7.1530    -1.6000    -1.5520 f          1 4W0      -0.229300
     32 H1          -5.8020    -4.0580     1.6730 ha         1 4W0       0.137000
     33 H2          -3.6640    -2.8350     1.7400 ha         1 4W0       0.137000
     34 H3          -7.7560    -3.1030     0.4710 ha         1 4W0       0.156000
     35 H5          -1.6930     1.1230     2.3140 ha         1 4W0       0.141500
     36 H6           0.5730     2.0070     2.5870 ha         1 4W0       0.135000
     37 H7           0.9560     2.3560    -1.6620 ha         1 4W0       0.135000
     38 H8          -1.3080     1.4700    -1.9420 ha         1 4W0       0.141500
     39 H9           2.5620     3.5010    -0.1030 hc         1 4W0       0.060700
     40 H10          2.4440     3.2320     1.6260 hc         1 4W0       0.060700
     41 H11          3.2830     1.1350     2.6400 ha         1 4W0       0.137000
     42 H12          4.8470    -0.7590     2.4560 ha         1 4W0       0.154000
     43 H13          5.1370    -0.0850    -1.7740 ha         1 4W0       0.154000
     44 H14          3.6250     1.8150    -1.5710 ha         1 4W0       0.137000
     45 H15         -3.7920     2.6180    -2.3760 hc         1 4W0       0.046033
     46 H16         -4.7740     3.2760    -1.0830 hc         1 4W0       0.046033
     47 H17         -3.0240     3.2040    -0.9060 hc         1 4W0       0.046033
     48 H4          -2.4410    -0.9590     1.0520 hn         1 4W0       0.452800
@<TRIPOS>BOND
     1     1     2 ar  
     2     1     6 ar  
     3     1    32 1   
     4     2     3 ar  
     5     2    33 1   
     6     3     4 ar  
     7     3    18 1   
     8     4     5 ar  
     9     4     8 1   
    10     5     6 ar  
    11     5    27 1   
    12     6    34 1   
    13     7    23 1   
    14     7    28 1   
    15     8     9 1   
    16     8    17 2   
    17     9    10 2   
    18     9    26 1   
    19    10    11 1   
    20    10    18 1   
    21    11    12 ar  
    22    11    16 ar  
    23    12    13 ar  
    24    12    35 1   
    25    13    14 ar  
    26    13    36 1   
    27    14    15 ar  
    28    14    19 1   
    29    15    16 ar  
    30    15    37 1   
    31    16    38 1   
    32    18    48 1   
    33    19    20 1   
    34    19    39 1   
    35    19    40 1   
    36    20    21 ar  
    37    20    25 ar  
    38    21    22 ar  
    39    21    41 1   
    40    22    23 ar  
    41    22    42 1   
    42    23    24 ar  
    43    24    25 ar  
    44    24    43 1   
    45    25    44 1   
    46    26    45 1   
    47    26    46 1   
    48    26    47 1   
    49    28    29 1   
    50    28    30 1   
    51    28    31 1   
@<TRIPOS>SUBSTRUCTURE
     1 4W0         1 TEMP              0 ****  ****    0 ROOT
