@<TRIPOS>MOLECULE
4W0
   48    51     1     0     0
SMALL
No Charge or Current Charge


@<TRIPOS>ATOM
      1 C1          -6.2020    -2.5850     1.6950 ca         1 4W0      -0.020000
      2 C2          -4.9160    -2.0290     1.6240 ca         1 4W0      -0.206000
      3 C3          -4.5820    -1.1200     0.6080 ca         1 4W0       0.350000
      4 C4          -5.5240    -0.7700    -0.3480 ca         1 4W0      -0.256600
      5 C5          -6.8180    -1.3290    -0.2880 ca         1 4W0       0.268000
      6 C6          -7.1540    -2.2320     0.7300 ca         1 4W0      -0.217000
      7 O1           6.3940    -1.2360     0.2690 os         1 4W0      -0.407100
      8 C7          -5.1190     0.2200    -1.3590 c          1 4W0       0.593900
      9 C8          -3.8840     0.9690    -1.0340 cc         1 4W0      -0.246400
     10 C9          -2.9840     0.5420    -0.0540 cd         1 4W0       0.203800
     11 C10         -1.6400     1.1210     0.2170 ca         1 4W0      -0.082800
     12 C11         -1.0720     0.9700     1.5040 ca         1 4W0      -0.084000
     13 C12          0.1990     1.4890     1.8050 ca         1 4W0      -0.106500
     14 C13          0.9450     2.1590     0.8220 ca         1 4W0      -0.062300
     15 C14          0.4070     2.2910    -0.4700 ca         1 4W0      -0.106500
     16 C15         -0.8650     1.7750    -0.7710 ca         1 4W0      -0.084000
     17 O2          -5.7940     0.4430    -2.3590 o          1 4W0      -0.547100
     18 N           -3.2660    -0.6890     0.5600 na         1 4W0      -0.790000
     19 C16          2.3270     2.7120     1.1440 c3         1 4W0       0.012200
     20 C17          3.4130     1.6750     0.8930 ca         1 4W0      -0.075300
     21 C18          3.8160     0.8040     1.9220 ca         1 4W0      -0.089500
     22 C19          4.8140    -0.1570     1.6860 ca         1 4W0      -0.112000
     23 C20          5.4200    -0.2650     0.4240 ca         1 4W0       0.112100
     24 C21          5.0150     0.6080    -0.6130 ca         1 4W0      -0.112000
     25 C22          4.0160     1.5690    -0.3750 ca         1 4W0      -0.089500
     26 C23         -3.7500     2.2500    -1.8440 c3         1 4W0      -0.027900
     27 F1          -7.7750    -0.9980    -1.1840 f          1 4W0      -0.148000
     28 C24          7.1080    -1.4750    -0.9610 c3         1 4W0       0.518000
     29 F2           7.8120    -0.3910    -1.3600 f          1 4W0      -0.108000
     30 F3           7.9940    -2.4840    -0.8080 f          1 4W0      -0.108000
     31 F4           6.2790    -1.8300    -1.9700 f          1 4W0      -0.108000
     32 H1          -6.4550    -3.2880     2.4870 ha         1 4W0       0.119000
     33 H2          -4.1730    -2.3160     2.3630 ha         1 4W0       0.119000
     34 H3          -8.1550    -2.6530     0.7710 ha         1 4W0       0.138000
     35 H5          -1.6300     0.4740     2.2950 ha         1 4W0       0.123500
     36 H6           0.6030     1.3680     2.8080 ha         1 4W0       0.117000
     37 H7           0.9830     2.7830    -1.2510 ha         1 4W0       0.117000
     38 H8          -1.2110     1.8490    -1.7960 ha         1 4W0       0.123500
     39 H9           2.5200     3.6110     0.5450 hc         1 4W0       0.060700
     40 H10          2.3620     3.0490     2.1870 hc         1 4W0       0.060700
     41 H11          3.3560     0.8700     2.9060 ha         1 4W0       0.119000
     42 H12          5.1200    -0.8260     2.4870 ha         1 4W0       0.136000
     43 H13          5.4550     0.5590    -1.6040 ha         1 4W0       0.136000
     44 H14          3.7100     2.2330    -1.1800 ha         1 4W0       0.119000
     45 H15         -3.2820     2.0590    -2.8180 hc         1 4W0       0.046033
     46 H16         -4.7230     2.7200    -2.0320 hc         1 4W0       0.046033
     47 H17         -3.1610     3.0060    -1.3130 hc         1 4W0       0.046033
     48 H4          -2.5500    -1.1750     1.0910 hn         1 4W0       0.508000
@<TRIPOS>BOND
     1     1     2 ar  
     2     1     6 ar  
     3     1    32 1   
     4     2     3 ar  
     5     2    33 1   
     6     3     4 ar  
     7     3    18 1   
     8     4     5 ar  
     9     4     8 1   
    10     5     6 ar  
    11     5    27 1   
    12     6    34 1   
    13     7    23 1   
    14     7    28 1   
    15     8     9 1   
    16     8    17 2   
    17     9    10 2   
    18     9    26 1   
    19    10    11 1   
    20    10    18 1   
    21    11    12 ar  
    22    11    16 ar  
    23    12    13 ar  
    24    12    35 1   
    25    13    14 ar  
    26    13    36 1   
    27    14    15 ar  
    28    14    19 1   
    29    15    16 ar  
    30    15    37 1   
    31    16    38 1   
    32    18    48 1   
    33    19    20 1   
    34    19    39 1   
    35    19    40 1   
    36    20    21 ar  
    37    20    25 ar  
    38    21    22 ar  
    39    21    41 1   
    40    22    23 ar  
    41    22    42 1   
    42    23    24 ar  
    43    24    25 ar  
    44    24    43 1   
    45    25    44 1   
    46    26    45 1   
    47    26    46 1   
    48    26    47 1   
    49    28    29 1   
    50    28    30 1   
    51    28    31 1   
@<TRIPOS>SUBSTRUCTURE
     1 4W0         1 TEMP              0 ****  ****    0 ROOT
