@<TRIPOS>MOLECULE
4W1
   19    20     1     0     0
SMALL
abcg2


@<TRIPOS>ATOM
      1 CAD          2.3260    -0.6850    -0.0040 ca         1 4W1      -0.077000
      2 CAB          2.9810     0.5320    -0.0130 ca         1 4W1      -0.105000
      3 CAC          2.2620     1.7340    -0.0140 ca         1 4W1      -0.112000
      4 CAE          0.8820     1.7310    -0.0080 ca         1 4W1      -0.080000
      5 CAK          0.1950     0.5110     0.0010 ca         1 4W1      -0.066800
      6 CAJ          0.9340    -0.6840     0.0030 ca         1 4W1      -0.158000
      7 SAH         -0.1140    -2.0650     0.0160 ss         1 4W1       0.046400
      8 CAF         -1.5160    -1.0470     0.0190 cc         1 4W1      -0.117400
      9 CAI         -1.2260     0.2730     0.0100 cd         1 4W1      -0.090400
     10 CAG         -2.2260     1.3810     0.0110 c3         1 4W1       0.226800
     11 OAA         -3.5220     0.8440     0.0070 oh         1 4W1      -0.657000
     12 H1           2.8840    -1.6120    -0.0040 ha         1 4W1       0.121000
     13 H2           4.0620     0.5550    -0.0180 ha         1 4W1       0.113000
     14 H3           2.7970     2.6750    -0.0210 ha         1 4W1       0.113000
     15 H4           0.3360     2.6670    -0.0090 ha         1 4W1       0.112000
     16 H5          -2.4930    -1.5060     0.0280 h4         1 4W1       0.230000
     17 H6          -2.0510     2.0150     0.8920 h1         1 4W1       0.027200
     18 H7          -2.0470     2.0220    -0.8640 h1         1 4W1       0.027200
     19 H8          -4.1490     1.5730     0.0340 ho         1 4W1       0.446000
@<TRIPOS>BOND
     1     1     2 ar  
     2     1     6 ar  
     3     1    12 1   
     4     2     3 ar  
     5     2    13 1   
     6     3     4 ar  
     7     3    14 1   
     8     4     5 ar  
     9     4    15 1   
    10     5     6 ar  
    11     5     9 1   
    12     6     7 1   
    13     7     8 1   
    14     8     9 2   
    15     8    16 1   
    16     9    10 1   
    17    10    11 1   
    18    10    17 1   
    19    10    18 1   
    20    11    19 1   
@<TRIPOS>SUBSTRUCTURE
     1 4W1         1 TEMP              0 ****  ****    0 ROOT
