@<TRIPOS>MOLECULE
4W1
   19    20     1     0     0
SMALL
No Charge or Current Charge


@<TRIPOS>ATOM
      1 CAD          2.3350    -0.6860    -0.0050 ca         1 4W1      -0.077000
      2 CAB          3.0130     0.5490    -0.0130 ca         1 4W1      -0.105000
      3 CAC          2.2850     1.7590    -0.0130 ca         1 4W1      -0.112000
      4 CAE          0.8760     1.7380    -0.0060 ca         1 4W1      -0.080000
      5 CAK          0.2180     0.4950     0.0030 ca         1 4W1      -0.066800
      6 CAJ          0.9310    -0.6860     0.0030 ca         1 4W1      -0.158000
      7 SAH         -0.0940    -2.1420     0.0140 ss         1 4W1       0.046400
      8 CAF         -1.5360    -1.0920     0.0180 cc         1 4W1      -0.117400
      9 CAI         -1.2130     0.2560     0.0110 cd         1 4W1      -0.090400
     10 CAG         -2.2320     1.3770     0.0130 c3         1 4W1       0.226800
     11 OAA         -3.5790     0.8860     0.0220 oh         1 4W1      -0.657000
     12 H1           2.8900    -1.6220    -0.0050 ha         1 4W1       0.121000
     13 H2           4.1000     0.5700    -0.0190 ha         1 4W1       0.113000
     14 H3           2.8130     2.7100    -0.0200 ha         1 4W1       0.113000
     15 H4           0.3150     2.6690    -0.0060 ha         1 4W1       0.112000
     16 H5          -2.5190    -1.5490     0.0250 h4         1 4W1       0.230000
     17 H6          -2.0550     2.0070     0.8950 h1         1 4W1       0.027200
     18 H7          -2.0650     2.0000    -0.8750 h1         1 4W1       0.027200
     19 H8          -4.1650     1.6760     0.0230 ho         1 4W1       0.446000
@<TRIPOS>BOND
     1     1     2 ar  
     2     1     6 ar  
     3     1    12 1   
     4     2     3 ar  
     5     2    13 1   
     6     3     4 ar  
     7     3    14 1   
     8     4     5 ar  
     9     4    15 1   
    10     5     6 ar  
    11     5     9 1   
    12     6     7 1   
    13     7     8 1   
    14     8     9 2   
    15     8    16 1   
    16     9    10 1   
    17    10    11 1   
    18    10    17 1   
    19    10    18 1   
    20    11    19 1   
@<TRIPOS>SUBSTRUCTURE
     1 4W1         1 TEMP              0 ****  ****    0 ROOT
