@<TRIPOS>MOLECULE
4W4
   43    45     1     0     0
SMALL
No Charge or Current Charge


@<TRIPOS>ATOM
      1 C1           8.5010     2.0570    -1.6440 c3         1 4W4      -0.090100
      2 C2           7.9310     1.4410    -0.3510 c3         1 4W4      -0.075400
      3 C3           6.5330     0.8150    -0.5450 c3         1 4W4      -0.077400
      4 C4           5.9600     0.1960     0.7500 c3         1 4W4      -0.057200
      5 C5           4.6030    -0.4220     0.5510 cc         1 4W4       0.181800
      6 C6           4.3780    -1.7840     0.3900 cd         1 4W4      -0.384200
      7 C7           3.0810    -2.4640     0.1880 c          1 4W4       0.560000
      8 O8           2.9670    -3.6770     0.0530 o          1 4W4      -0.465000
      9 N9           2.0200    -1.5660     0.1690 n          1 4W4       0.138000
     10 N10          0.6480    -1.7070     0.0110 nc         1 4W4      -0.557800
     11 C11          0.1390    -0.4910     0.0820 cd         1 4W4       0.578900
     12 N12         -1.1940    -0.2740    -0.0360 nu         1 4W4      -0.905100
     13 C13         -2.2280    -1.2930    -0.2380 c3         1 4W4       0.271100
     14 C14         -3.5930    -0.6260    -0.3000 ca         1 4W4      -0.151300
     15 C15         -4.0110     0.0010    -1.4920 ca         1 4W4      -0.067000
     16 C16         -5.2720     0.6200    -1.5620 ca         1 4W4      -0.125000
     17 C17         -6.1210     0.6140    -0.4440 ca         1 4W4       0.151000
     18 Cl1         -7.6970     1.3890    -0.5340 cl         1 4W4      -0.189000
     19 C19         -5.7140    -0.0080     0.7450 ca         1 4W4      -0.155000
     20 C20         -4.4560    -0.6250     0.8160 ca         1 4W4       0.209000
     21 F21         -4.0820    -1.2180     1.9730 f          1 4W4      -0.160000
     22 C22          1.1130     0.5220     0.2860 cd         1 4W4      -0.251000
     23 C23          0.9470     1.9200     0.4100 ch         1 4W4       0.367000
     24 N24          0.8380     3.0770     0.5150 n1         1 4W4      -0.481000
     25 C25          2.2430    -0.2380     0.3270 cc         1 4W4       0.312000
     26 N26          3.4620     0.4000     0.5190 na         1 4W4      -0.788000
     27 H1           9.4920     2.4880    -1.4580 hc         1 4W4       0.037033
     28 H2           8.6000     1.2940    -2.4260 hc         1 4W4       0.037033
     29 H3           7.8450     2.8530    -2.0170 hc         1 4W4       0.037033
     30 H4           8.6260     0.6750     0.0150 hc         1 4W4       0.041200
     31 H5           7.8780     2.2200     0.4210 hc         1 4W4       0.041200
     32 H6           5.8410     1.5820    -0.9140 hc         1 4W4       0.048700
     33 H7           6.5890     0.0380    -1.3170 hc         1 4W4       0.048700
     34 H8           6.6580    -0.5630     1.1250 hc         1 4W4       0.068200
     35 H9           5.9020     0.9680     1.5270 hc         1 4W4       0.068200
     36 H10          5.2120    -2.4740     0.4040 ha         1 4W4       0.225000
     37 H12         -1.4870     0.6980     0.0360 hn         1 4W4       0.489000
     38 H13         -2.0470    -1.8350    -1.1770 h1         1 4W4       0.065700
     39 H14         -2.2000    -2.0340     0.5740 h1         1 4W4       0.065700
     40 H15         -3.3580     0.0110    -2.3630 ha         1 4W4       0.122000
     41 H16         -5.5910     1.1040    -2.4820 ha         1 4W4       0.136000
     42 H17         -6.3700    -0.0120     1.6100 ha         1 4W4       0.150000
     43 H11          3.5250     1.4110     0.6280 hn         1 4W4       0.532000
@<TRIPOS>BOND
     1     1     2 1   
     2     1    27 1   
     3     1    28 1   
     4     1    29 1   
     5     2     3 1   
     6     2    30 1   
     7     2    31 1   
     8     3     4 1   
     9     3    32 1   
    10     3    33 1   
    11     4     5 1   
    12     4    34 1   
    13     4    35 1   
    14     5     6 2   
    15     5    26 1   
    16     6     7 1   
    17     6    36 1   
    18     7     8 2   
    19     7     9 1   
    20     9    10 1   
    21     9    25 1   
    22    10    11 2   
    23    11    12 1   
    24    11    22 1   
    25    12    13 1   
    26    12    37 1   
    27    13    14 1   
    28    13    38 1   
    29    13    39 1   
    30    14    15 ar  
    31    14    20 ar  
    32    15    16 ar  
    33    15    40 1   
    34    16    17 ar  
    35    16    41 1   
    36    17    18 1   
    37    17    19 ar  
    38    19    20 ar  
    39    19    42 1   
    40    20    21 1   
    41    22    23 1   
    42    22    25 2   
    43    23    24 3   
    44    25    26 1   
    45    26    43 1   
@<TRIPOS>SUBSTRUCTURE
     1 4W4         1 TEMP              0 ****  ****    0 ROOT
