@<TRIPOS>MOLECULE
4W4
   43    45     1     0     0
SMALL
bcc


@<TRIPOS>ATOM
      1 C1           8.5860     1.7950    -1.4330 c3         1 4W4      -0.090100
      2 C2           7.9570     1.1960    -0.1840 c3         1 4W4      -0.075400
      3 C3           6.5350     0.7070    -0.4300 c3         1 4W4      -0.077400
      4 C4           5.9160     0.0980     0.8320 c3         1 4W4      -0.057200
      5 C5           4.5320    -0.4100     0.5980 cc         1 4W4       0.181800
      6 C6           4.2230    -1.7240     0.4630 cd         1 4W4      -0.334200
      7 C7           2.8850    -2.1880     0.2030 c          1 4W4       0.635500
      8 O8           2.5260    -3.3390     0.0720 o          1 4W4      -0.540500
      9 N9           1.9650    -1.1370     0.1060 n          1 4W4       0.087300
     10 N10          0.6450    -1.3330    -0.1410 nc         1 4W4      -0.557800
     11 C11          0.1160    -0.1310    -0.1500 cd         1 4W4       0.644200
     12 N12         -1.2060     0.0870    -0.3140 nu         1 4W4      -0.849900
     13 C13         -2.0890    -0.9960    -0.6980 c3         1 4W4       0.271100
     14 C14         -3.5190    -0.5980    -0.4800 ca         1 4W4      -0.151300
     15 C15         -4.3750    -0.3500    -1.5460 ca         1 4W4      -0.085000
     16 C16         -5.6950     0.0330    -1.3530 ca         1 4W4      -0.143000
     17 C17         -6.1640     0.1740    -0.0570 ca         1 4W4       0.059400
     18 CL1         -7.8050     0.6500     0.2120 cl         1 4W4      -0.097400
     19 C19         -5.3460    -0.0620     1.0380 ca         1 4W4      -0.173000
     20 C20         -4.0410    -0.4410     0.7970 ca         1 4W4       0.173900
     21 F21         -3.2490    -0.6770     1.8490 f          1 4W4      -0.124900
     22 C22          1.1020     0.8830     0.0780 cd         1 4W4      -0.316300
     23 C23          0.9210     2.2690     0.1450 ch         1 4W4       0.277800
     24 N24          0.7550     3.4110     0.2020 n1         1 4W4      -0.391800
     25 C25          2.2790     0.1700     0.2360 cc         1 4W4       0.224300
     26 N26          3.5500     0.5300     0.4800 na         1 4W4      -0.594400
     27 H1           9.6020     2.1400    -1.2400 hc         1 4W4       0.037033
     28 H2           8.6330     1.0650    -2.2430 hc         1 4W4       0.037033
     29 H3           8.0100     2.6500    -1.7910 hc         1 4W4       0.037033
     30 H4           8.5680     0.3620     0.1760 hc         1 4W4       0.041200
     31 H5           7.9500     1.9390     0.6180 hc         1 4W4       0.041200
     32 H6           5.9230     1.5420    -0.7860 hc         1 4W4       0.048700
     33 H7           6.5340    -0.0420    -1.2270 hc         1 4W4       0.048700
     34 H8           6.5330    -0.7300     1.1810 hc         1 4W4       0.068200
     35 H9           5.8960     0.8420     1.6340 hc         1 4W4       0.068200
     36 H10          5.0020    -2.4670     0.5510 ha         1 4W4       0.175000
     37 H12         -1.4720     1.0060    -0.6300 hn         1 4W4       0.433800
     38 H13         -1.9500    -1.2790    -1.7460 h1         1 4W4       0.065700
     39 H14         -1.8370    -1.8740    -0.1010 h1         1 4W4       0.065700
     40 H15         -4.0010    -0.4610    -2.5560 ha         1 4W4       0.140000
     41 H16         -6.3410     0.2200    -2.1990 ha         1 4W4       0.154000
     42 H17         -5.7090     0.0440     2.0510 ha         1 4W4       0.168000
     43 H11          3.7680     1.5090     0.6040 hn         1 4W4       0.476800
@<TRIPOS>BOND
     1     1     2 1   
     2     1    27 1   
     3     1    28 1   
     4     1    29 1   
     5     2     3 1   
     6     2    30 1   
     7     2    31 1   
     8     3     4 1   
     9     3    32 1   
    10     3    33 1   
    11     4     5 1   
    12     4    34 1   
    13     4    35 1   
    14     5     6 2   
    15     5    26 1   
    16     6     7 1   
    17     6    36 1   
    18     7     8 2   
    19     7     9 1   
    20     9    10 1   
    21     9    25 1   
    22    10    11 2   
    23    11    12 1   
    24    11    22 1   
    25    12    13 1   
    26    12    37 1   
    27    13    14 1   
    28    13    38 1   
    29    13    39 1   
    30    14    15 ar  
    31    14    20 ar  
    32    15    16 ar  
    33    15    40 1   
    34    16    17 ar  
    35    16    41 1   
    36    17    18 1   
    37    17    19 ar  
    38    19    20 ar  
    39    19    42 1   
    40    20    21 1   
    41    22    23 1   
    42    22    25 2   
    43    23    24 3   
    44    25    26 1   
    45    26    43 1   
@<TRIPOS>SUBSTRUCTURE
     1 4W4         1 TEMP              0 ****  ****    0 ROOT
