@<TRIPOS>MOLECULE
4W5
   24    25     1     0     0
SMALL
abcg2


@<TRIPOS>ATOM
      1 C4           0.6500    -1.1070    -0.0180 ca         1 4W5       0.019000
      2 C5           3.2330    -1.1850    -0.0360 cc         1 4W5      -0.178100
      3 C8           2.2180     0.7890     0.0180 ca         1 4W5      -0.051000
      4 C9           1.9640    -0.6110    -0.0140 ca         1 4W5      -0.170000
      5 C13         -4.0620    -0.2050     0.0010 c3         1 4W5       0.166600
      6 C14         -4.9180     1.0370     0.0040 c3         1 4W5      -0.097100
      7 C1           1.1400     1.7030     0.0450 ca         1 4W5      -0.097000
      8 C2          -0.1280     1.2000     0.0370 ca         1 4W5      -0.060000
      9 C3          -0.3850    -0.2050     0.0070 ca         1 4W5      -0.165600
     10 N6           4.0820    -0.1600    -0.0150 na         1 4W5       0.018500
     11 N7           3.5260     1.0450     0.0180 nc         1 4W5      -0.284400
     12 O11         -2.6900     0.2040     0.0070 os         1 4W5      -0.445100
     13 O12         -2.0250    -1.9270    -0.0070 o          1 4W5      -0.499000
     14 H1           0.4560    -2.1710    -0.0410 ha         1 4W5       0.137000
     15 H2           3.5680    -2.2070    -0.0660 h4         1 4W5       0.231000
     16 H3          -4.2670    -0.8220     0.8780 h1         1 4W5       0.047700
     17 H4          -4.2620    -0.8140    -0.8830 h1         1 4W5       0.047700
     18 H5          -4.7460     1.6450     0.8910 hc         1 4W5       0.045700
     19 H6          -4.7390     1.6530    -0.8780 hc         1 4W5       0.045700
     20 H7          -5.9680     0.7470    -0.0020 hc         1 4W5       0.045700
     21 H8           1.3170     2.7700     0.0670 ha         1 4W5       0.130000
     22 H9          -0.9600     1.8890     0.0550 ha         1 4W5       0.129000
     23 H10          5.0870    -0.2330    -0.0240 hn         1 4W5       0.372000
     24 C10         -1.7660    -0.7500     0.0020 c          1 4W5       0.612700
@<TRIPOS>BOND
     1     1     4 ar  
     2     1     9 ar  
     3     1    14 1   
     4     2     4 2   
     5     2    10 1   
     6     2    15 1   
     7     3     4 ar  
     8     3     7 ar  
     9     3    11 2   
    10     5     6 1   
    11     5    12 1   
    12     5    16 1   
    13     5    17 1   
    14     6    18 1   
    15     6    19 1   
    16     6    20 1   
    17     7     8 ar  
    18     7    21 1   
    19     8     9 ar  
    20     8    22 1   
    21     9    24 1   
    22    10    11 1   
    23    10    23 1   
    24    12    24 1   
    25    13    24 2   
@<TRIPOS>SUBSTRUCTURE
     1 4W5         1 TEMP              0 ****  ****    0 ROOT
