@<TRIPOS>MOLECULE
4W5
   24    25     1     0     0
SMALL
No Charge or Current Charge


@<TRIPOS>ATOM
      1 C4           0.7110    -1.1020    -0.0200 ca         1 4W5       0.019000
      2 C5           3.2740    -1.1970    -0.0220 cc         1 4W5      -0.178100
      3 C8           2.2520     0.7870     0.0130 ca         1 4W5      -0.051000
      4 C9           2.0030    -0.5610    -0.0110 ca         1 4W5      -0.170000
      5 C13         -4.1410    -0.2160    -0.0020 c3         1 4W5       0.166600
      6 C14         -5.0100     1.0510     0.0210 c3         1 4W5      -0.097100
      7 C1           1.1820     1.6920     0.0290 ca         1 4W5      -0.097000
      8 C2          -0.1380     1.1910     0.0210 ca         1 4W5      -0.060000
      9 C3          -0.3880    -0.2100    -0.0040 ca         1 4W5      -0.165600
     10 N6           4.2130    -0.1680    -0.0050 na         1 4W5       0.018500
     11 N7           3.6130     1.0990     0.0180 nc         1 4W5      -0.284400
     12 O11         -2.7660     0.2040     0.0050 os         1 4W5      -0.445100
     13 O12         -2.0340    -1.9630    -0.0330 o          1 4W5      -0.499000
     14 H1           0.5660    -2.1810    -0.0380 ha         1 4W5       0.137000
     15 H2           3.5780    -2.2390    -0.0400 h4         1 4W5       0.231000
     16 H3          -4.3670    -0.8320     0.8790 h1         1 4W5       0.047700
     17 H4          -4.3680    -0.8000    -0.9040 h1         1 4W5       0.047700
     18 H5          -4.8090     1.6420     0.9220 hc         1 4W5       0.045700
     19 H6          -4.8100     1.6730    -0.8600 hc         1 4W5       0.045700
     20 H7          -6.0730     0.7810     0.0160 hc         1 4W5       0.045700
     21 H8           1.3650     2.7630     0.0480 ha         1 4W5       0.130000
     22 H9          -0.9630     1.9010     0.0330 ha         1 4W5       0.129000
     23 H10          5.2260    -0.2680    -0.0070 hn         1 4W5       0.372000
     24 C10         -1.7930    -0.7620    -0.0130 c          1 4W5       0.612700
@<TRIPOS>BOND
     1     1     4 ar  
     2     1     9 ar  
     3     1    14 1   
     4     2     4 2   
     5     2    10 1   
     6     2    15 1   
     7     3     4 ar  
     8     3     7 ar  
     9     3    11 2   
    10     5     6 1   
    11     5    12 1   
    12     5    16 1   
    13     5    17 1   
    14     6    18 1   
    15     6    19 1   
    16     6    20 1   
    17     7     8 ar  
    18     7    21 1   
    19     8     9 ar  
    20     8    22 1   
    21     9    24 1   
    22    10    11 1   
    23    10    23 1   
    24    12    24 1   
    25    13    24 2   
@<TRIPOS>SUBSTRUCTURE
     1 4W5         1 TEMP              0 ****  ****    0 ROOT
