@<TRIPOS>MOLECULE
4W6
   42    44     1     0     0
SMALL
No Charge or Current Charge


@<TRIPOS>ATOM
      1 C1           6.2070    -2.5380     0.0670 c3         1 4W6      -0.092100
      2 C2           5.0760    -1.5590     0.4380 c3         1 4W6      -0.074400
      3 C3           4.5800    -0.7210    -0.7610 c3         1 4W6      -0.059200
      4 C4           3.4830     0.2400    -0.3890 cc         1 4W6       0.189800
      5 C5           3.6740     1.5970    -0.1610 cd         1 4W6      -0.395200
      6 C6           2.6530     2.5980     0.2100 c          1 4W6       0.564000
      7 O7           2.9020     3.7830     0.3970 o          1 4W6      -0.462000
      8 N8           1.3880     2.0340     0.3190 n          1 4W6       0.131000
      9 N9           0.1410     2.5460     0.6380 nc         1 4W6      -0.473800
     10 C10         -0.7320     1.5430     0.5920 cd         1 4W6       0.343300
     11 C11         -2.1800     1.7790     0.9020 c3         1 4W6      -0.196700
     12 C12         -3.0670     1.3900    -0.2790 c          1 4W6       0.609100
     13 O13         -3.0230     2.0390    -1.3160 o          1 4W6      -0.596100
     14 N14         -3.9060     0.2600    -0.1850 n          1 4W6      -0.418800
     15 C15         -4.2380    -0.4410     1.0790 c5         1 4W6       0.102000
     16 C16         -5.4610    -1.3010     0.6650 c5         1 4W6      -0.094400
     17 C17         -5.1430    -1.6230    -0.8150 c5         1 4W6      -0.094400
     18 C18         -4.6860    -0.2390    -1.3360 c5         1 4W6       0.102000
     19 C19         -0.0920     0.3080     0.2450 cd         1 4W6      -0.177000
     20 C20         -0.6510    -0.9860     0.1000 ch         1 4W6       0.373000
     21 N21         -1.0810    -2.0640    -0.0260 n1         1 4W6      -0.474000
     22 C22          1.2010     0.7140     0.0960 cc         1 4W6       0.284000
     23 N23          2.1640    -0.2280    -0.2530 na         1 4W6      -0.787000
     24 H1           5.8710    -3.2480    -0.6980 hc         1 4W6       0.039367
     25 H2           7.0780    -1.9960    -0.3220 hc         1 4W6       0.039367
     26 H3           6.5240    -3.1080     0.9480 hc         1 4W6       0.039367
     27 H4           4.2360    -2.1270     0.8580 hc         1 4W6       0.048700
     28 H5           5.4300    -0.8850     1.2280 hc         1 4W6       0.048700
     29 H6           5.4250    -0.1660    -1.1850 hc         1 4W6       0.068200
     30 H7           4.2270    -1.3920    -1.5530 hc         1 4W6       0.068200
     31 H8           4.6650     2.0250    -0.2470 ha         1 4W6       0.225000
     32 H10         -2.4360     1.2290     1.8100 hc         1 4W6       0.080200
     33 H11         -2.3370     2.8460     1.0940 hc         1 4W6       0.080200
     34 H12         -3.3990    -1.0710     1.4050 h1         1 4W6       0.051700
     35 H13         -4.4930     0.2520     1.8910 h1         1 4W6       0.051700
     36 H14         -5.5710    -2.1980     1.2840 hc         1 4W6       0.055200
     37 H15         -6.3910    -0.7270     0.7510 hc         1 4W6       0.055200
     38 H16         -4.3370    -2.3630    -0.8960 hc         1 4W6       0.055200
     39 H17         -6.0070    -2.0140    -1.3630 hc         1 4W6       0.055200
     40 H18         -5.5400     0.4200    -1.5420 h1         1 4W6       0.051700
     41 H19         -4.0790    -0.3240    -2.2480 h1         1 4W6       0.051700
     42 H9           1.9280    -1.2090    -0.4010 hn         1 4W6       0.533000
@<TRIPOS>BOND
     1     1     2 1   
     2     1    24 1   
     3     1    25 1   
     4     1    26 1   
     5     2     3 1   
     6     2    27 1   
     7     2    28 1   
     8     3     4 1   
     9     3    29 1   
    10     3    30 1   
    11     4     5 2   
    12     4    23 1   
    13     5     6 1   
    14     5    31 1   
    15     6     7 2   
    16     6     8 1   
    17     8     9 1   
    18     8    22 1   
    19     9    10 2   
    20    10    11 1   
    21    10    19 1   
    22    11    12 1   
    23    11    32 1   
    24    11    33 1   
    25    12    13 2   
    26    12    14 1   
    27    14    15 1   
    28    14    18 1   
    29    15    16 1   
    30    15    34 1   
    31    15    35 1   
    32    16    17 1   
    33    16    36 1   
    34    16    37 1   
    35    17    18 1   
    36    17    38 1   
    37    17    39 1   
    38    18    40 1   
    39    18    41 1   
    40    19    20 1   
    41    19    22 2   
    42    20    21 3   
    43    22    23 1   
    44    23    42 1   
@<TRIPOS>SUBSTRUCTURE
     1 4W6         1 TEMP              0 ****  ****    0 ROOT
