@<TRIPOS>MOLECULE
4W6
   42    44     1     0     0
SMALL
abcg2


@<TRIPOS>ATOM
      1 C1           7.0980    -1.5860    -0.0690 c3         1 4W6      -0.092100
      2 C2           5.7540    -1.0190     0.3610 c3         1 4W6      -0.074400
      3 C3           5.0730    -0.2650    -0.7860 c3         1 4W6      -0.059200
      4 C4           3.7640     0.3220    -0.3750 cc         1 4W6       0.189800
      5 C5           3.6150     1.6130     0.0190 cd         1 4W6      -0.395200
      6 C6           2.3580     2.1550     0.4560 c          1 4W6       0.564000
      7 O7           2.1330     3.2870     0.8230 o          1 4W6      -0.462000
      8 N8           1.3250     1.1990     0.4170 n          1 4W6       0.131000
      9 N9           0.0530     1.4750     0.7660 nc         1 4W6      -0.473800
     10 C10         -0.6100     0.3640     0.5930 cd         1 4W6       0.343300
     11 C11         -2.0600     0.2740     0.8980 c3         1 4W6      -0.196700
     12 C12         -2.8860     0.0000    -0.3500 c          1 4W6       0.609100
     13 O13         -2.3590    -0.1400    -1.4470 o          1 4W6      -0.596100
     14 N14         -4.2070    -0.0810    -0.1660 n          1 4W6      -0.418800
     15 C15         -4.9140     0.1070     1.0980 c5         1 4W6       0.102000
     16 C16         -6.3650     0.2690     0.6610 c5         1 4W6      -0.094400
     17 C17         -6.4510    -0.6100    -0.5830 c5         1 4W6      -0.094400
     18 C18         -5.1130    -0.3710    -1.2740 c5         1 4W6       0.102000
     19 C19          0.2340    -0.6790     0.1240 cd         1 4W6      -0.177000
     20 C20         -0.1120    -2.0020    -0.1910 ch         1 4W6       0.373000
     21 N21         -0.3920    -3.0930    -0.4420 n1         1 4W6      -0.474000
     22 C22          1.4800    -0.0860     0.0240 cc         1 4W6       0.284000
     23 N23          2.6930    -0.5200    -0.3660 na         1 4W6      -0.787000
     24 H1           6.9820    -2.3030    -0.8820 hc         1 4W6       0.039367
     25 H2           7.7670    -0.7960    -0.4150 hc         1 4W6       0.039367
     26 H3           7.5900    -2.0970     0.7580 hc         1 4W6       0.039367
     27 H4           5.1080    -1.8280     0.7110 hc         1 4W6       0.048700
     28 H5           5.8860    -0.3380     1.2050 hc         1 4W6       0.048700
     29 H6           5.7200     0.5430    -1.1300 hc         1 4W6       0.068200
     30 H7           4.9230    -0.9370    -1.6360 hc         1 4W6       0.068200
     31 H8           4.4690     2.2740     0.0090 ha         1 4W6       0.225000
     32 H10         -2.2390    -0.5140     1.6360 hc         1 4W6       0.080200
     33 H11         -2.3810     1.2100     1.3610 hc         1 4W6       0.080200
     34 H12         -4.7930    -0.7660     1.7470 h1         1 4W6       0.051700
     35 H13         -4.5450     0.9790     1.6370 h1         1 4W6       0.051700
     36 H14         -7.0630    -0.0200     1.4460 hc         1 4W6       0.055200
     37 H15         -6.5620     1.3110     0.4020 hc         1 4W6       0.055200
     38 H16         -6.5450    -1.6600    -0.2970 hc         1 4W6       0.055200
     39 H17         -7.2940    -0.3640    -1.2270 hc         1 4W6       0.055200
     40 H18         -5.1620     0.4800    -1.9580 h1         1 4W6       0.051700
     41 H19         -4.7710    -1.2360    -1.8430 h1         1 4W6       0.051700
     42 H9           2.8000    -1.4770    -0.6740 hn         1 4W6       0.533000
@<TRIPOS>BOND
     1     1     2 1   
     2     1    24 1   
     3     1    25 1   
     4     1    26 1   
     5     2     3 1   
     6     2    27 1   
     7     2    28 1   
     8     3     4 1   
     9     3    29 1   
    10     3    30 1   
    11     4     5 2   
    12     4    23 1   
    13     5     6 1   
    14     5    31 1   
    15     6     7 2   
    16     6     8 1   
    17     8     9 1   
    18     8    22 1   
    19     9    10 2   
    20    10    11 1   
    21    10    19 1   
    22    11    12 1   
    23    11    32 1   
    24    11    33 1   
    25    12    13 2   
    26    12    14 1   
    27    14    15 1   
    28    14    18 1   
    29    15    16 1   
    30    15    34 1   
    31    15    35 1   
    32    16    17 1   
    33    16    36 1   
    34    16    37 1   
    35    17    18 1   
    36    17    38 1   
    37    17    39 1   
    38    18    40 1   
    39    18    41 1   
    40    19    20 1   
    41    19    22 2   
    42    20    21 3   
    43    22    23 1   
    44    23    42 1   
@<TRIPOS>SUBSTRUCTURE
     1 4W6         1 TEMP              0 ****  ****    0 ROOT
