@<TRIPOS>MOLECULE
4W8
   78    84     1     0     0
SMALL
No Charge or Current Charge


@<TRIPOS>ATOM
      1 C41        -16.4940    16.1690    -0.5060 ca         1 4W8      -0.115000
      2 C42        -15.8750    15.6110    -1.6450 ca         1 4W8      -0.100000
      3 C5         -23.4600     8.1840     5.5600 ca         1 4W8      -0.041000
      4 C40        -15.9340    15.9710     0.7730 ca         1 4W8      -0.044000
      5 C6         -22.0750     7.9540     5.6980 ca         1 4W8      -0.170000
      6 C4         -23.9350     9.1570     4.6480 ca         1 4W8      -0.246000
      7 C43        -14.6950    14.8570    -1.5060 ca         1 4W8      -0.080000
      8 C10        -20.5100    10.2310     3.4030 cc         1 4W8      -0.155200
      9 C11        -21.6540     9.6460     4.0360 ca         1 4W8      -0.149800
     10 C39        -14.7580    15.2150     0.9010 ca         1 4W8       0.093400
     11 C7         -21.1960     8.7100     4.9130 ca         1 4W8      -0.002200
     12 C3         -23.0220     9.9080     3.8680 ca         1 4W8       0.201100
     13 C44        -14.1600    14.6780    -0.2210 ca         1 4W8      -0.184000
     14 C9         -19.3720     9.6000     3.9230 cd         1 4W8      -0.151300
     15 C37        -13.0780    14.1630     1.8640 cc         1 4W8       0.392200
     16 C33        -12.0640    10.1450     6.8830 c          1 4W8       0.563000
     17 C12        -17.9090     9.8360     3.6310 c          1 4W8       0.645300
     18 C35        -12.2160    13.5420     2.9580 c3         1 4W8       0.153000
     19 C30        -13.8110    11.8010     6.9790 c5         1 4W8      -0.089400
     20 C31        -14.0010    10.7660     8.1210 c5         1 4W8       0.100000
     21 C15        -18.3410    11.1870     1.4740 c5         1 4W8       0.136000
     22 C28        -12.9610    10.9860     5.9650 c5         1 4W8      -0.154700
     23 C20        -16.0230    10.8920     2.3280 c5         1 4W8       0.059700
     24 C16        -17.3600    11.6390     0.3840 cx         1 4W8      -0.126700
     25 C18        -15.9600    11.4630     0.8970 cx         1 4W8      -0.131700
     26 C46        -16.4560    10.5880    -0.2440 cx         1 4W8      -0.078000
     27 C47        -15.9010    10.8700    -1.6400 c3         1 4W8      -0.065100
     28 C48        -16.7010     9.0770    -0.0900 c3         1 4W8      -0.065100
     29 C1         -24.8010    11.1870     2.7410 c3         1 4W8       0.146900
     30 C27        -12.1750    11.8360     4.9250 c3         1 4W8      -0.074400
     31 C25        -13.0520    12.6800     3.9580 c3         1 4W8       0.075700
     32 N38        -14.1450    14.9420     2.1170 nd         1 4W8      -0.487100
     33 N8         -19.8150     8.6530     4.8890 na         1 4W8      -0.188700
     34 N32        -12.7040    10.0950     8.0910 ns         1 4W8      -0.514900
     35 N14        -17.4840    10.6790     2.5700 n          1 4W8      -0.381800
     36 N24        -13.9950    11.8050     3.2390 ns         1 4W8      -0.502900
     37 O13        -17.0650     9.2730     4.3210 o          1 4W8      -0.647100
     38 O36        -11.4500    14.5400     3.6720 oh         1 4W8      -0.627000
     39 O23        -15.9490    12.6160     4.1380 o          1 4W8      -0.580100
     40 S45        -12.7170    13.7610     0.1670 ss         1 4W8       0.006800
     41 H1         -17.4070    16.7510    -0.6140 ha         1 4W8       0.119000
     42 H2         -16.3100    15.7630    -2.6300 ha         1 4W8       0.115000
     43 H3         -24.1650     7.6100     6.1580 ha         1 4W8       0.110000
     44 H4         -16.4110    16.3930     1.6540 ha         1 4W8       0.138000
     45 H5         -21.7020     7.2090     6.3980 ha         1 4W8       0.120000
     46 H6         -25.0060     9.3120     4.5640 ha         1 4W8       0.116000
     47 H7         -14.2110    14.4200    -2.3780 ha         1 4W8       0.123000
     48 H8         -20.5630    11.0470     2.6940 ha         1 4W8       0.211000
     49 H9         -11.5200    12.8590     2.4540 h1         1 4W8       0.037700
     50 H10        -13.2650    12.6810     7.3420 hc         1 4W8       0.067700
     51 H11        -14.7640    12.1510     6.5690 hc         1 4W8       0.067700
     52 H12        -14.2100    11.2490     9.0850 h1         1 4W8       0.045200
     53 H13        -14.8180    10.0660     7.8970 h1         1 4W8       0.045200
     54 H14        -18.9290    12.0450     1.8220 h1         1 4W8       0.062200
     55 H15        -19.0310    10.4150     1.1060 h1         1 4W8       0.062200
     56 H16        -13.6250    10.2830     5.4490 hc         1 4W8       0.091700
     57 H17        -15.4790     9.9400     2.3980 h1         1 4W8       0.082700
     58 H18        -17.5940    12.5250    -0.2040 hc         1 4W8       0.102700
     59 H19        -15.2230    12.2240     0.6580 hc         1 4W8       0.108700
     60 H20        -15.7150    11.9400    -1.7920 hc         1 4W8       0.041367
     61 H21        -14.9510    10.3450    -1.8000 hc         1 4W8       0.041367
     62 H22        -16.6030    10.5440    -2.4170 hc         1 4W8       0.041367
     63 H23        -17.1060     8.7840     0.8830 hc         1 4W8       0.041367
     64 H24        -17.4100     8.7230    -0.8480 hc         1 4W8       0.041367
     65 H25        -15.7670     8.5190    -0.2270 hc         1 4W8       0.041367
     66 H26        -24.8960    11.9760     1.9850 h1         1 4W8       0.042033
     67 H27        -25.3500    10.3060     2.3840 h1         1 4W8       0.042033
     68 H28        -25.2710    11.5440     3.6660 h1         1 4W8       0.042033
     69 H29        -11.5420    11.1720     4.3230 hc         1 4W8       0.056200
     70 H30        -11.4900    12.5030     5.4630 hc         1 4W8       0.056200
     71 H31        -13.6340    13.3860     4.5680 h1         1 4W8       0.112700
     72 H32        -19.2220     8.0520     5.4540 hn         1 4W8       0.370000
     73 H33        -12.2400     9.6540     8.8760 hn         1 4W8       0.324500
     74 H34        -13.6250    11.1320     2.5780 hn         1 4W8       0.313500
     75 H35        -10.7240    14.0770     4.1450 ho         1 4W8       0.450000
     76 C22        -15.3740    11.8650     3.3610 c          1 4W8       0.599100
     77 O34        -10.9130     9.7720     6.7210 o          1 4W8      -0.565000
     78 O2         -23.4160    10.8710     2.9610 os         1 4W8      -0.335100
@<TRIPOS>BOND
     1     1     2 ar  
     2     1     4 ar  
     3     1    41 1   
     4     2     7 ar  
     5     2    42 1   
     6     3     5 ar  
     7     3     6 ar  
     8     3    43 1   
     9     4    10 ar  
    10     4    44 1   
    11     5    11 ar  
    12     5    45 1   
    13     6    12 ar  
    14     6    46 1   
    15     7    13 ar  
    16     7    47 1   
    17     8     9 1   
    18     8    14 2   
    19     8    48 1   
    20     9    11 ar  
    21     9    12 ar  
    22    10    13 ar  
    23    10    32 1   
    24    11    33 1   
    25    12    78 1   
    26    13    40 1   
    27    14    17 1   
    28    14    33 1   
    29    15    18 1   
    30    15    32 2   
    31    15    40 1   
    32    16    22 1   
    33    16    34 1   
    34    16    77 2   
    35    17    35 1   
    36    17    37 2   
    37    18    31 1   
    38    18    38 1   
    39    18    49 1   
    40    19    20 1   
    41    19    22 1   
    42    19    50 1   
    43    19    51 1   
    44    20    34 1   
    45    20    52 1   
    46    20    53 1   
    47    21    24 1   
    48    21    35 1   
    49    21    54 1   
    50    21    55 1   
    51    22    30 1   
    52    22    56 1   
    53    23    25 1   
    54    23    35 1   
    55    23    57 1   
    56    23    76 1   
    57    24    25 1   
    58    24    26 1   
    59    24    58 1   
    60    25    26 1   
    61    25    59 1   
    62    26    27 1   
    63    26    28 1   
    64    27    60 1   
    65    27    61 1   
    66    27    62 1   
    67    28    63 1   
    68    28    64 1   
    69    28    65 1   
    70    29    66 1   
    71    29    67 1   
    72    29    68 1   
    73    29    78 1   
    74    30    31 1   
    75    30    69 1   
    76    30    70 1   
    77    31    36 1   
    78    31    71 1   
    79    33    72 1   
    80    34    73 1   
    81    36    74 1   
    82    36    76 1   
    83    38    75 1   
    84    39    76 2   
@<TRIPOS>SUBSTRUCTURE
     1 4W8         1 TEMP              0 ****  ****    0 ROOT
