@<TRIPOS>MOLECULE
4W8
   78    84     1     0     0
SMALL
bcc


@<TRIPOS>ATOM
      1 C41        -15.4700    16.6640    -0.6200 ca         1 4W8      -0.133000
      2 C42        -14.9900    15.9030    -1.6930 ca         1 4W8      -0.118000
      3 C5         -22.4570     8.3360     6.4420 ca         1 4W8      -0.059000
      4 C40        -15.0680    16.4000     0.6750 ca         1 4W8      -0.062000
      5 C6         -21.0850     8.2570     6.3780 ca         1 4W8      -0.188000
      6 C4         -23.2270     9.0170     5.4760 ca         1 4W8      -0.264000
      7 C43        -14.0960    14.8680    -1.4910 ca         1 4W8      -0.098000
      8 C10        -20.2810    10.0990     3.3670 cc         1 4W8      -0.105200
      9 C11        -21.2110     9.5800     4.3060 ca         1 4W8      -0.149800
     10 C39        -14.1700    15.3550     0.9010 ca         1 4W8       0.093400
     11 C7         -20.4740     8.8950     5.2910 ca         1 4W8      -0.002200
     12 C3         -22.6150     9.6410     4.4050 ca         1 4W8       0.201100
     13 C44        -13.6910    14.6060    -0.1870 ca         1 4W8      -0.057100
     14 C9         -19.0290     9.7250     3.7970 cd         1 4W8      -0.151300
     15 C37        -12.8930    13.9670     2.0220 cc         1 4W8       0.392200
     16 C33        -13.1440    10.0630     7.0130 c          1 4W8       0.705500
     17 C12        -17.6440     9.9550     3.3460 c          1 4W8       0.712300
     18 C35        -12.2520    13.2740     3.1920 c3         1 4W8       0.129800
     19 C30        -14.8710    11.6560     6.5950 c5         1 4W8      -0.089400
     20 C31        -15.2830    10.7160     7.7280 c5         1 4W8       0.100000
     21 C15        -18.3560    11.1810     1.2650 c5         1 4W8       0.136000
     22 C28        -13.7550    10.8880     5.8900 c5         1 4W8      -0.154700
     23 C20        -16.0110    10.8850     1.8550 c5         1 4W8       0.059700
     24 C16        -17.5210    11.7260     0.1350 cx         1 4W8      -0.126700
     25 C18        -16.0770    11.5490     0.4960 cx         1 4W8      -0.131700
     26 C46        -16.6580    10.7870    -0.6600 cx         1 4W8      -0.078000
     27 C47        -16.2380    11.2870    -2.0240 c3         1 4W8      -0.065100
     28 C48        -16.8500     9.2900    -0.6150 c3         1 4W8      -0.065100
     29 C1         -24.6500    10.4310     3.4930 c3         1 4W8       0.123700
     30 C27        -12.7290    11.7180     5.1390 c3         1 4W8      -0.074400
     31 C25        -13.3400    12.5370     4.0010 c3         1 4W8       0.075700
     32 N38        -13.6950    14.9630     2.1300 nd         1 4W8      -0.487100
     33 N8         -19.1660     9.0010     4.9570 na         1 4W8      -0.138400
     34 N32        -14.0450    10.0200     8.0100 ns         1 4W8      -0.581900
     35 N14        -17.3940    10.5920     2.1880 n          1 4W8      -0.448800
     36 N24        -14.1140    11.7000     3.1130 ns         1 4W8      -0.569900
     37 O13        -16.7230     9.5530     4.0570 o          1 4W8      -0.647100
     38 O36        -11.5920    14.2450     3.9580 oh         1 4W8      -0.564800
     39 O23        -16.1080    12.7610     3.3370 o          1 4W8      -0.580100
     40 S45        -12.6040    13.3970     0.4000 ss         1 4W8      -0.120100
     41 H1         -16.1670    17.4690    -0.8090 ha         1 4W8       0.137000
     42 H2         -15.3230    16.1280    -2.6980 ha         1 4W8       0.133000
     43 H3         -22.9760     7.8610     7.2640 ha         1 4W8       0.128000
     44 H4         -15.4380    16.9820     1.5090 ha         1 4W8       0.156000
     45 H5         -20.5090     7.7330     7.1280 ha         1 4W8       0.138000
     46 H6         -24.3010     9.0360     5.5970 ha         1 4W8       0.134000
     47 H7         -13.7270    14.2830    -2.3220 ha         1 4W8       0.141000
     48 H8         -20.5310    10.6830     2.5000 ha         1 4W8       0.161000
     49 H9         -11.5470    12.5240     2.8060 h1         1 4W8       0.037700
     50 H10        -14.4790    12.5890     7.0100 hc         1 4W8       0.067700
     51 H11        -15.7060    11.9050     5.9440 hc         1 4W8       0.067700
     52 H12        -15.6460    11.2460     8.6080 h1         1 4W8       0.045200
     53 H13        -16.0650    10.0220     7.4050 h1         1 4W8       0.045200
     54 H14        -18.9120    11.9940     1.7390 h1         1 4W8       0.062200
     55 H15        -19.0730    10.4300     0.9260 h1         1 4W8       0.062200
     56 H16        -14.2090    10.1650     5.2000 hc         1 4W8       0.091700
     57 H17        -15.4210     9.9630     1.8340 h1         1 4W8       0.082700
     58 H18        -17.8710    12.6360    -0.3370 hc         1 4W8       0.102700
     59 H19        -15.3480    12.3230     0.2880 hc         1 4W8       0.108700
     60 H20        -16.0970    12.3690    -2.0350 hc         1 4W8       0.041367
     61 H21        -15.2980    10.8250    -2.3310 hc         1 4W8       0.041367
     62 H22        -16.9910    11.0420    -2.7760 hc         1 4W8       0.041367
     63 H23        -17.1660     8.9100     0.3550 hc         1 4W8       0.041367
     64 H24        -17.6030     8.9870    -1.3440 hc         1 4W8       0.041367
     65 H25        -15.9190     8.7840    -0.8770 hc         1 4W8       0.041367
     66 H26        -24.9530    11.0140     2.6260 h1         1 4W8       0.042033
     67 H27        -25.1420     9.4560     3.4520 h1         1 4W8       0.042033
     68 H28        -24.9750    10.9500     4.3990 h1         1 4W8       0.042033
     69 H29        -11.9560    11.0570     4.7340 hc         1 4W8       0.056200
     70 H30        -12.2340    12.3980     5.8370 hc         1 4W8       0.056200
     71 H31        -14.0180    13.2880     4.4100 h1         1 4W8       0.112700
     72 H32        -18.3890     8.6260     5.4770 hn         1 4W8       0.319700
     73 H33        -13.9210     9.4320     8.8200 hn         1 4W8       0.324500
     74 H34        -13.6550    10.8940     2.7150 hn         1 4W8       0.313500
     75 H35        -10.9010    13.8160     4.4730 ho         1 4W8       0.411000
     76 C22        -15.4240    11.8710     2.8630 c          1 4W8       0.666100
     77 O34        -12.0480     9.5280     7.0050 o          1 4W8      -0.640500
     78 O2         -23.2430    10.3160     3.4300 os         1 4W8      -0.311900
@<TRIPOS>BOND
     1     1     2 ar  
     2     1     4 ar  
     3     1    41 1   
     4     2     7 ar  
     5     2    42 1   
     6     3     5 ar  
     7     3     6 ar  
     8     3    43 1   
     9     4    10 ar  
    10     4    44 1   
    11     5    11 ar  
    12     5    45 1   
    13     6    12 ar  
    14     6    46 1   
    15     7    13 ar  
    16     7    47 1   
    17     8     9 1   
    18     8    14 2   
    19     8    48 1   
    20     9    11 ar  
    21     9    12 ar  
    22    10    13 ar  
    23    10    32 1   
    24    11    33 1   
    25    12    78 1   
    26    13    40 1   
    27    14    17 1   
    28    14    33 1   
    29    15    18 1   
    30    15    32 2   
    31    15    40 1   
    32    16    22 1   
    33    16    34 1   
    34    16    77 2   
    35    17    35 1   
    36    17    37 2   
    37    18    31 1   
    38    18    38 1   
    39    18    49 1   
    40    19    20 1   
    41    19    22 1   
    42    19    50 1   
    43    19    51 1   
    44    20    34 1   
    45    20    52 1   
    46    20    53 1   
    47    21    24 1   
    48    21    35 1   
    49    21    54 1   
    50    21    55 1   
    51    22    30 1   
    52    22    56 1   
    53    23    25 1   
    54    23    35 1   
    55    23    57 1   
    56    23    76 1   
    57    24    25 1   
    58    24    26 1   
    59    24    58 1   
    60    25    26 1   
    61    25    59 1   
    62    26    27 1   
    63    26    28 1   
    64    27    60 1   
    65    27    61 1   
    66    27    62 1   
    67    28    63 1   
    68    28    64 1   
    69    28    65 1   
    70    29    66 1   
    71    29    67 1   
    72    29    68 1   
    73    29    78 1   
    74    30    31 1   
    75    30    69 1   
    76    30    70 1   
    77    31    36 1   
    78    31    71 1   
    79    33    72 1   
    80    34    73 1   
    81    36    74 1   
    82    36    76 1   
    83    38    75 1   
    84    39    76 2   
@<TRIPOS>SUBSTRUCTURE
     1 4W8         1 TEMP              0 ****  ****    0 ROOT
