@<TRIPOS>MOLECULE
4W9
   81    85     1     0     0
SMALL
No Charge or Current Charge


@<TRIPOS>ATOM
      1 CG           2.1060    -0.6380     1.0180 c6         1 4W9      -0.093000
      2 O5           6.7010     1.0840    -0.4510 oh         1 4W9      -0.662000
      3 C27         -5.3350     0.0050    -0.1040 c2         1 4W9      -0.120400
      4 C29         -5.1210    -1.4730     0.3100 c6         1 4W9      -0.024500
      5 C17         -3.7210    -2.0580    -0.0980 c6         1 4W9      -0.072400
      6 C12         -2.6170    -0.9660    -0.2080 c5         1 4W9       0.157600
      7 C13         -1.2030    -1.5660    -0.4520 c2         1 4W9       0.218900
      8 O16         -0.8240    -2.2000    -1.5720 oh         1 4W9      -0.509100
      9 N11         -2.4140    -0.4370     1.1460 ns         1 4W9      -0.514900
     10 C10         -1.2020    -0.7250     1.6640 c          1 4W9       0.606200
     11 O14         -0.8580    -0.4840     2.8050 o          1 4W9      -0.566000
     12 C9          -0.4420    -1.3740     0.6320 ce         1 4W9      -0.446400
     13 C7           0.9740    -1.7460     0.8160 c          1 4W9       0.648300
     14 O8           1.1990    -2.9410     0.9500 o          1 4W9      -0.610100
     15 C26         -4.4090     0.7180    -0.7780 c2         1 4W9      -0.215200
     16 C24         -3.0900     0.1270    -1.2610 c6         1 4W9       0.004200
     17 C22         -2.0510     1.2650    -1.6640 c3         1 4W9      -0.058400
     18 C20         -1.4000     2.3550    -0.7150 c3         1 4W9      -0.041700
     19 C21         -1.9090     2.5080     0.7480 c3         1 4W9      -0.073400
     20 C23         -1.7580     3.9310     1.3320 c3         1 4W9      -0.092100
     21 C19          0.1630     2.4630    -0.8740 c3         1 4W9       0.174300
     22 C18          1.0080     1.1620    -0.6400 c3         1 4W9      -0.116400
     23 CD2          1.5640     0.8590     0.8120 c6         1 4W9      -0.044700
     24 CE2          2.6650     1.9000     1.1790 c6         1 4W9      -0.071400
     25 CZ           3.9390     1.7350     0.3170 c6         1 4W9      -0.065400
     26 CE1          4.4810     0.2740     0.2950 c6         1 4W9      -0.053700
     27 C6           2.5520    -0.8560     2.5160 c3         1 4W9      -0.100100
     28 C4           3.9920    -2.2230    -0.0050 c6         1 4W9      -0.076400
     29 C3           5.1540    -2.3310    -1.0180 c6         1 4W9      -0.070400
     30 C2           6.2450    -1.2790    -0.7320 c6         1 4W9      -0.115400
     31 C1           5.6520     0.1480    -0.7360 c6         1 4W9       0.172300
     32 O4           0.4410     2.9380    -2.1990 oh         1 4W9      -0.672000
     33 C5          -3.4570    -0.5130    -2.6560 c3         1 4W9      -0.089100
     34 C8          -5.3860    -1.6600     1.8360 c3         1 4W9      -0.087100
     35 C14          3.3450    -0.7950     0.0130 c6         1 4W9      -0.040700
     36 H1           7.3840     0.9590    -1.1450 ho         1 4W9       0.440000
     37 H2          -5.8870    -2.0810    -0.1920 hc         1 4W9       0.056700
     38 H3          -3.4050    -2.8190     0.6280 hc         1 4W9       0.061700
     39 H4          -3.8030    -2.6170    -1.0380 hc         1 4W9       0.061700
     40 H5           0.0490    -2.6100    -1.3980 ho         1 4W9       0.534000
     41 H6          -3.1120     0.0120     1.7220 hn         1 4W9       0.342500
     42 H7          -4.6100     1.7510    -1.0670 ha         1 4W9       0.184000
     43 H8          -1.2480     0.7800    -2.2280 hc         1 4W9       0.046200
     44 H9          -2.5380     1.8630    -2.4450 hc         1 4W9       0.046200
     45 H10         -1.7590     3.2920    -1.1620 hc         1 4W9       0.052700
     46 H11         -2.9670     2.2370     0.8130 hc         1 4W9       0.049700
     47 H12         -1.3510     1.8450     1.4090 hc         1 4W9       0.049700
     48 H13         -0.7060     4.2340     1.3850 hc         1 4W9       0.032033
     49 H14         -2.3020     4.6640     0.7230 hc         1 4W9       0.032033
     50 H15         -2.1680     3.9670     2.3480 hc         1 4W9       0.032033
     51 H16          0.5170     3.2250    -0.1710 h1         1 4W9       0.037700
     52 H17          0.4590     0.3090    -1.0260 hc         1 4W9       0.042200
     53 H18          1.8530     1.2130    -1.3320 hc         1 4W9       0.042200
     54 H19          0.7390     1.0360     1.5070 hc         1 4W9       0.075700
     55 H20          2.2830     2.9220     1.0590 hc         1 4W9       0.035200
     56 H21          2.9240     1.8340     2.2430 hc         1 4W9       0.035200
     57 H22          3.7540     2.0840    -0.7070 hc         1 4W9       0.052200
     58 H23          4.7110     2.4090     0.7130 hc         1 4W9       0.052200
     59 H24          4.9100     0.0660     1.2840 hc         1 4W9       0.057700
     60 H25          2.8620    -1.8910     2.7030 hc         1 4W9       0.053367
     61 H26          3.3900    -0.2280     2.8300 hc         1 4W9       0.053367
     62 H27          1.7300    -0.6450     3.2090 hc         1 4W9       0.053367
     63 H28          3.2600    -2.9830    -0.2950 hc         1 4W9       0.053200
     64 H29          4.3550    -2.4960     0.9950 hc         1 4W9       0.053200
     65 H30          5.5900    -3.3380    -0.9780 hc         1 4W9       0.040200
     66 H31          4.7700    -2.1990    -2.0390 hc         1 4W9       0.040200
     67 H32          6.7140    -1.4900     0.2400 hc         1 4W9       0.044200
     68 H33          7.0380    -1.3610    -1.4880 hc         1 4W9       0.044200
     69 H34          5.2480     0.3480    -1.7400 h1         1 4W9       0.026700
     70 H35          1.4010     3.1360    -2.2370 ho         1 4W9       0.441000
     71 H36         -4.3120    -1.1960    -2.6030 hc         1 4W9       0.044033
     72 H37         -3.7520     0.2490    -3.3880 hc         1 4W9       0.044033
     73 H38         -2.6180    -1.0640    -3.0930 hc         1 4W9       0.044033
     74 H39         -6.4330    -1.4600     2.0910 hc         1 4W9       0.038033
     75 H40         -5.1800    -2.6890     2.1530 hc         1 4W9       0.038033
     76 H41         -4.7640    -0.9930     2.4440 hc         1 4W9       0.038033
     77 H42         -6.8140     0.7310     1.3200 hc         1 4W9       0.042033
     78 H43         -6.8310     1.5830    -0.2220 hc         1 4W9       0.042033
     79 H44         -7.5060    -0.0450    -0.1180 hc         1 4W9       0.042033
     80 H45          2.9790    -0.6380    -1.0100 hc         1 4W9       0.047700
     81 C11         -6.6920     0.5980     0.2390 c3         1 4W9      -0.053900
@<TRIPOS>BOND
     1     1    13 1   
     2     1    23 1   
     3     1    27 1   
     4     1    35 1   
     5     2    31 1   
     6     2    36 1   
     7     3     4 1   
     8     3    15 2   
     9     3    81 1   
    10     4     5 1   
    11     4    34 1   
    12     4    37 1   
    13     5     6 1   
    14     5    38 1   
    15     5    39 1   
    16     6     7 1   
    17     6     9 1   
    18     6    16 1   
    19     7     8 1   
    20     7    12 2   
    21     8    40 1   
    22     9    10 1   
    23     9    41 1   
    24    10    11 2   
    25    10    12 1   
    26    12    13 1   
    27    13    14 2   
    28    15    16 1   
    29    15    42 1   
    30    16    17 1   
    31    16    33 1   
    32    17    18 1   
    33    17    43 1   
    34    17    44 1   
    35    18    19 1   
    36    18    21 1   
    37    18    45 1   
    38    19    20 1   
    39    19    46 1   
    40    19    47 1   
    41    20    48 1   
    42    20    49 1   
    43    20    50 1   
    44    21    22 1   
    45    21    32 1   
    46    21    51 1   
    47    22    23 1   
    48    22    52 1   
    49    22    53 1   
    50    23    24 1   
    51    23    54 1   
    52    24    25 1   
    53    24    55 1   
    54    24    56 1   
    55    25    26 1   
    56    25    57 1   
    57    25    58 1   
    58    26    31 1   
    59    26    35 1   
    60    26    59 1   
    61    27    60 1   
    62    27    61 1   
    63    27    62 1   
    64    28    29 1   
    65    28    35 1   
    66    28    63 1   
    67    28    64 1   
    68    29    30 1   
    69    29    65 1   
    70    29    66 1   
    71    30    31 1   
    72    30    67 1   
    73    30    68 1   
    74    31    69 1   
    75    32    70 1   
    76    33    71 1   
    77    33    72 1   
    78    33    73 1   
    79    34    74 1   
    80    34    75 1   
    81    34    76 1   
    82    35    80 1   
    83    77    81 1   
    84    78    81 1   
    85    79    81 1   
@<TRIPOS>SUBSTRUCTURE
     1 4W9         1 TEMP              0 ****  ****    0 ROOT
