@<TRIPOS>MOLECULE
4W9
   81    85     1     0     0
SMALL
abcg2


@<TRIPOS>ATOM
      1 CG           2.0890    -0.5750     0.6380 c6         1 4W9      -0.093000
      2 O5           6.6980     1.1200     0.4760 oh         1 4W9      -0.662000
      3 C27         -5.2750     0.0420     0.2240 c2         1 4W9      -0.120400
      4 C29         -5.1530    -1.4290     0.5700 c6         1 4W9      -0.024500
      5 C17         -3.8210    -2.0810     0.1290 c6         1 4W9      -0.072400
      6 C12         -2.7100    -1.0490    -0.0850 c5         1 4W9       0.157600
      7 C13         -1.3840    -1.6650    -0.4190 c2         1 4W9       0.218900
      8 O16         -1.2350    -2.3670    -1.5010 oh         1 4W9      -0.509100
      9 N11         -2.3770    -0.4560     1.1850 ns         1 4W9      -0.514900
     10 C10         -1.1000    -0.6090     1.5830 c          1 4W9       0.606200
     11 O14         -0.6810    -0.2350     2.6700 o          1 4W9      -0.566000
     12 C9          -0.4080    -1.3170     0.4810 ce         1 4W9      -0.446400
     13 C7           0.9920    -1.4700     0.0650 c          1 4W9       0.648300
     14 O8           1.2040    -2.2400    -0.8740 o          1 4W9      -0.610100
     15 C26         -4.3790     0.6830    -0.5290 c2         1 4W9      -0.215200
     16 C24         -3.1690     0.0220    -1.1340 c6         1 4W9       0.004200
     17 C22         -2.0860     1.0250    -1.6280 c3         1 4W9      -0.058400
     18 C20         -1.4330     2.2170    -0.8550 c3         1 4W9      -0.041700
     19 C21         -1.7090     2.4280     0.6380 c3         1 4W9      -0.073400
     20 C23         -1.5360     3.8820     1.0660 c3         1 4W9      -0.092100
     21 C19          0.0710     2.3440    -1.2070 c3         1 4W9       0.174300
     22 C18          0.9470     1.0950    -1.0000 c3         1 4W9      -0.116400
     23 CD2          1.5950     0.9080     0.3940 c6         1 4W9      -0.044700
     24 CE2          2.7410     1.9410     0.4910 c6         1 4W9      -0.071400
     25 CZ           3.9750     1.4800     1.2410 c6         1 4W9      -0.065400
     26 CE1          4.5210     0.1460     0.7050 c6         1 4W9      -0.053700
     27 C6           2.2260    -0.9780     2.1170 c3         1 4W9      -0.100100
     28 C4           4.0690    -2.1040    -0.2410 c6         1 4W9      -0.076400
     29 C3           5.3230    -2.0130    -1.1050 c6         1 4W9      -0.070400
     30 C2           6.3510    -1.0540    -0.5200 c6         1 4W9      -0.115400
     31 C1           5.7500     0.3100    -0.1930 c6         1 4W9       0.172300
     32 O4           0.0950     2.7140    -2.5790 oh         1 4W9      -0.672000
     33 C5          -3.6570    -0.6490    -2.4400 c3         1 4W9      -0.089100
     34 C8          -5.4360    -1.6990     2.0530 c3         1 4W9      -0.087100
     35 C14          3.4670    -0.7050    -0.0580 c6         1 4W9      -0.040700
     36 H1           7.4680     1.2060    -0.0940 ho         1 4W9       0.440000
     37 H2          -5.9540    -1.9280     0.0130 hc         1 4W9       0.056700
     38 H3          -3.4880    -2.7850     0.8950 hc         1 4W9       0.061700
     39 H4          -3.9580    -2.6700    -0.7760 hc         1 4W9       0.061700
     40 H5          -0.2680    -2.6070    -1.5310 ho         1 4W9       0.534000
     41 H6          -3.0580     0.0180     1.7540 hn         1 4W9       0.342500
     42 H7          -4.5500     1.7230    -0.7920 ha         1 4W9       0.184000
     43 H8          -1.3030     0.4120    -2.0770 hc         1 4W9       0.046200
     44 H9          -2.5580     1.4910    -2.4950 hc         1 4W9       0.046200
     45 H10         -1.8720     3.1070    -1.3190 hc         1 4W9       0.052700
     46 H11         -2.7350     2.1350     0.8570 hc         1 4W9       0.049700
     47 H12         -1.0740     1.8040     1.2600 hc         1 4W9       0.049700
     48 H13         -0.5160     4.2430     0.9250 hc         1 4W9       0.032033
     49 H14         -2.1970     4.5420     0.5010 hc         1 4W9       0.032033
     50 H15         -1.7750     4.0030     2.1230 hc         1 4W9       0.032033
     51 H16          0.4860     3.1630    -0.6010 h1         1 4W9       0.037700
     52 H17          0.3810     0.2310    -1.3310 hc         1 4W9       0.042200
     53 H18          1.7720     1.1580    -1.7180 hc         1 4W9       0.042200
     54 H19          0.8680     1.1310     1.1750 hc         1 4W9       0.075700
     55 H20          3.0580     2.2150    -0.5200 hc         1 4W9       0.035200
     56 H21          2.3630     2.8640     0.9370 hc         1 4W9       0.035200
     57 H22          4.7360     2.2570     1.1700 hc         1 4W9       0.052200
     58 H23          3.7560     1.3930     2.3070 hc         1 4W9       0.052200
     59 H24          4.8500    -0.4500     1.5660 hc         1 4W9       0.057700
     60 H25          2.6640    -1.9760     2.1870 hc         1 4W9       0.053367
     61 H26          2.8700    -0.3030     2.6710 hc         1 4W9       0.053367
     62 H27          1.2740    -0.9970     2.6350 hc         1 4W9       0.053367
     63 H28          3.3690    -2.7880    -0.7120 hc         1 4W9       0.053200
     64 H29          4.3260    -2.5320     0.7350 hc         1 4W9       0.053200
     65 H30          5.7710    -3.0020    -1.2260 hc         1 4W9       0.040200
     66 H31          5.0390    -1.6810    -2.1090 hc         1 4W9       0.040200
     67 H32          6.7560    -1.4750     0.4060 hc         1 4W9       0.044200
     68 H33          7.1920    -0.9350    -1.2100 hc         1 4W9       0.044200
     69 H34          5.4320     0.7960    -1.1300 h1         1 4W9       0.026700
     70 H35          1.0120     2.7790    -2.8610 ho         1 4W9       0.441000
     71 H36         -4.4360    -1.3890    -2.2660 hc         1 4W9       0.044033
     72 H37         -4.0910     0.1150    -3.0850 hc         1 4W9       0.044033
     73 H38         -2.8480    -1.1240    -2.9950 hc         1 4W9       0.044033
     74 H39         -6.4370    -1.3790     2.3380 hc         1 4W9       0.038033
     75 H40         -5.3650    -2.7670     2.2590 hc         1 4W9       0.038033
     76 H41         -4.7260    -1.1920     2.7090 hc         1 4W9       0.038033
     77 H42         -6.5020     0.8480     1.8100 hc         1 4W9       0.042033
     78 H43         -6.5920     1.7420     0.2960 hc         1 4W9       0.042033
     79 H44         -7.4080     0.1860     0.4630 hc         1 4W9       0.042033
     80 H45          3.3510    -0.2790    -1.0650 hc         1 4W9       0.047700
     81 C11         -6.5040     0.7440     0.7230 c3         1 4W9      -0.053900
@<TRIPOS>BOND
     1     1    13 1   
     2     1    23 1   
     3     1    27 1   
     4     1    35 1   
     5     2    31 1   
     6     2    36 1   
     7     3     4 1   
     8     3    15 2   
     9     3    81 1   
    10     4     5 1   
    11     4    34 1   
    12     4    37 1   
    13     5     6 1   
    14     5    38 1   
    15     5    39 1   
    16     6     7 1   
    17     6     9 1   
    18     6    16 1   
    19     7     8 1   
    20     7    12 2   
    21     8    40 1   
    22     9    10 1   
    23     9    41 1   
    24    10    11 2   
    25    10    12 1   
    26    12    13 1   
    27    13    14 2   
    28    15    16 1   
    29    15    42 1   
    30    16    17 1   
    31    16    33 1   
    32    17    18 1   
    33    17    43 1   
    34    17    44 1   
    35    18    19 1   
    36    18    21 1   
    37    18    45 1   
    38    19    20 1   
    39    19    46 1   
    40    19    47 1   
    41    20    48 1   
    42    20    49 1   
    43    20    50 1   
    44    21    22 1   
    45    21    32 1   
    46    21    51 1   
    47    22    23 1   
    48    22    52 1   
    49    22    53 1   
    50    23    24 1   
    51    23    54 1   
    52    24    25 1   
    53    24    55 1   
    54    24    56 1   
    55    25    26 1   
    56    25    57 1   
    57    25    58 1   
    58    26    31 1   
    59    26    35 1   
    60    26    59 1   
    61    27    60 1   
    62    27    61 1   
    63    27    62 1   
    64    28    29 1   
    65    28    35 1   
    66    28    63 1   
    67    28    64 1   
    68    29    30 1   
    69    29    65 1   
    70    29    66 1   
    71    30    31 1   
    72    30    67 1   
    73    30    68 1   
    74    31    69 1   
    75    32    70 1   
    76    33    71 1   
    77    33    72 1   
    78    33    73 1   
    79    34    74 1   
    80    34    75 1   
    81    34    76 1   
    82    35    80 1   
    83    77    81 1   
    84    78    81 1   
    85    79    81 1   
@<TRIPOS>SUBSTRUCTURE
     1 4W9         1 TEMP              0 ****  ****    0 ROOT
