@<TRIPOS>MOLECULE
4WA
   31    32     1     0     0
SMALL
bcc


@<TRIPOS>ATOM
      1 O10         -5.0070    -1.3170    -0.8670 o          1 4WA      -0.615800
      2 S18         -4.6910    -0.1280    -0.0870 sy         1 4WA       1.268200
      3 O9          -5.2780     1.1410    -0.4950 o          1 4WA      -0.615800
      4 N8          -5.0240    -0.5190     1.4820 n8         1 4WA      -0.892700
      5 C4          -2.9370     0.0800    -0.0230 ca         1 4WA      -0.268500
      6 C5          -2.1290    -1.0500     0.0860 ca         1 4WA      -0.033000
      7 C6          -0.7580    -0.9050     0.1110 ca         1 4WA      -0.127500
      8 C1          -0.1850     0.3690     0.0250 ca         1 4WA       0.149400
      9 C2          -1.0090     1.4870    -0.0740 ca         1 4WA      -0.127500
     10 C3          -2.3880     1.3500    -0.1040 ca         1 4WA      -0.033000
     11 N11          1.1930     0.6310     0.0340 ne         1 4WA      -0.237400
     12 N12          1.9130    -0.3860     0.0310 nf         1 4WA      -0.172400
     13 C13          3.2810    -0.1780     0.0370 ca         1 4WA       0.000400
     14 C18          4.0790    -1.3260     0.0090 ca         1 4WA      -0.026500
     15 C17          5.4520    -1.2440    -0.0010 ca         1 4WA      -0.232500
     16 C16          6.0880     0.0110     0.0180 ca         1 4WA       0.220600
     17 N19          7.4360     0.1110     0.0370 nv         1 4WA      -0.851200
     18 C15          5.2810     1.1700     0.0510 ca         1 4WA      -0.232500
     19 C14          3.9120     1.0770     0.0590 ca         1 4WA      -0.026500
     20 H1          -4.9510     0.2760     2.1080 hn         1 4WA       0.417800
     21 H2          -5.9380    -0.9550     1.5710 hn         1 4WA       0.417800
     22 H3          -2.5640    -2.0380     0.1530 ha         1 4WA       0.155500
     23 H4          -0.1270    -1.7780     0.1940 ha         1 4WA       0.152500
     24 H5          -0.5600     2.4690    -0.1360 ha         1 4WA       0.152500
     25 H6          -3.0150     2.2260    -0.1920 ha         1 4WA       0.155500
     26 H9           3.5960    -2.2960    -0.0100 ha         1 4WA       0.147000
     27 H10          6.0510    -2.1460    -0.0270 ha         1 4WA       0.134000
     28 H11          7.9900    -0.6940    -0.2000 hn         1 4WA       0.421300
     29 H12          7.8650     0.9980    -0.1660 hn         1 4WA       0.421300
     30 H13          5.7550     2.1440     0.0670 ha         1 4WA       0.134000
     31 H14          3.3150     1.9790     0.0800 ha         1 4WA       0.147000
@<TRIPOS>BOND
     1     1     2 2   
     2     2     3 2   
     3     2     4 1   
     4     2     5 1   
     5     4    20 1   
     6     4    21 1   
     7     5     6 ar  
     8     5    10 ar  
     9     6     7 ar  
    10     6    22 1   
    11     7     8 ar  
    12     7    23 1   
    13     8     9 ar  
    14     8    11 1   
    15     9    10 ar  
    16     9    24 1   
    17    10    25 1   
    18    11    12 2   
    19    12    13 1   
    20    13    14 ar  
    21    13    19 ar  
    22    14    15 ar  
    23    14    26 1   
    24    15    16 ar  
    25    15    27 1   
    26    16    17 1   
    27    16    18 ar  
    28    17    28 1   
    29    17    29 1   
    30    18    19 ar  
    31    18    30 1   
    32    19    31 1   
@<TRIPOS>SUBSTRUCTURE
     1 4WA         1 TEMP              0 ****  ****    0 ROOT
