@<TRIPOS>MOLECULE
4WA
   31    32     1     0     0
SMALL
No Charge or Current Charge


@<TRIPOS>ATOM
      1 O10         -5.1650    -1.5170    -0.7230 o          1 4WA      -0.545000
      2 S18         -4.7690    -0.2090    -0.2010 sy         1 4WA       1.126600
      3 O9          -5.2600     1.0500    -0.7550 o          1 4WA      -0.545000
      4 N8          -5.3010    -0.1880     1.3460 n8         1 4WA      -1.003100
      5 C4          -2.9880    -0.1310     0.0210 ca         1 4WA      -0.268500
      6 C5          -2.2490    -1.3170     0.2140 ca         1 4WA      -0.015000
      7 C6          -0.8550    -1.2570     0.3890 ca         1 4WA      -0.109500
      8 C1          -0.1890    -0.0190     0.3700 ca         1 4WA       0.149400
      9 C2          -0.9260     1.1630     0.1820 ca         1 4WA      -0.109500
     10 C3          -2.3200     1.1130     0.0070 ca         1 4WA      -0.015000
     11 N11          1.2060     0.0370     0.5520 ne         1 4WA      -0.237400
     12 N12          1.9020    -0.0330    -0.5030 nf         1 4WA      -0.172400
     13 C13          3.3030     0.0240    -0.3190 ca         1 4WA       0.000400
     14 C18          4.0410    -1.1600    -0.1270 ca         1 4WA      -0.008500
     15 C17          5.4360    -1.1010     0.0490 ca         1 4WA      -0.214500
     16 C16          6.0930     0.1350     0.0330 ca         1 4WA       0.359000
     17 N19          7.4450     0.1900     0.2040 nv         1 4WA      -1.100000
     18 C15          5.3650     1.3160    -0.1590 ca         1 4WA      -0.214500
     19 C14          3.9700     1.2640    -0.3370 ca         1 4WA      -0.008500
     20 H1          -4.5160     0.2290     1.8400 hn         1 4WA       0.473000
     21 H2          -5.9870     0.5620     1.3030 hn         1 4WA       0.473000
     22 H3          -2.7480    -2.2850     0.2310 ha         1 4WA       0.137500
     23 H4          -0.2900    -2.1730     0.5380 ha         1 4WA       0.134500
     24 H5          -0.4150     2.1220     0.1700 ha         1 4WA       0.134500
     25 H6          -2.8720     2.0400    -0.1410 ha         1 4WA       0.137500
     26 H9           3.5320    -2.1220    -0.1150 ha         1 4WA       0.129000
     27 H10          5.9980    -2.0180     0.1990 ha         1 4WA       0.116000
     28 H11          7.9870    -0.6710     0.1550 hn         1 4WA       0.476500
     29 H12          7.9400     1.0580     0.0060 hn         1 4WA       0.476500
     30 H13          5.8730     2.2760    -0.1720 ha         1 4WA       0.116000
     31 H14          3.4060     2.1820    -0.4870 ha         1 4WA       0.129000
@<TRIPOS>BOND
     1     1     2 2   
     2     2     3 2   
     3     2     4 1   
     4     2     5 1   
     5     4    20 1   
     6     4    21 1   
     7     5     6 ar  
     8     5    10 ar  
     9     6     7 ar  
    10     6    22 1   
    11     7     8 ar  
    12     7    23 1   
    13     8     9 ar  
    14     8    11 1   
    15     9    10 ar  
    16     9    24 1   
    17    10    25 1   
    18    11    12 2   
    19    12    13 1   
    20    13    14 ar  
    21    13    19 ar  
    22    14    15 ar  
    23    14    26 1   
    24    15    16 ar  
    25    15    27 1   
    26    16    17 1   
    27    16    18 ar  
    28    17    28 1   
    29    17    29 1   
    30    18    19 ar  
    31    18    30 1   
    32    19    31 1   
@<TRIPOS>SUBSTRUCTURE
     1 4WA         1 TEMP              0 ****  ****    0 ROOT
