@<TRIPOS>MOLECULE
4WB
   58    62     1     0     0
SMALL
abcg2


@<TRIPOS>ATOM
      1 C7         -27.3250    -0.4200    31.7450 c5         1 4WB       0.240800
      2 C1         -27.2090     3.0240    33.1400 ca         1 4WB      -0.062000
      3 C2         -28.3180     3.7770    33.5290 ca         1 4WB      -0.148000
      4 C3         -29.5750     3.1930    33.5590 ca         1 4WB      -0.080000
      5 C4         -29.7540     1.8620    33.1980 ca         1 4WB      -0.157000
      6 C5         -28.6420     1.1260    32.8080 ca         1 4WB       0.275000
      7 C6         -27.3660     1.6990    32.7740 ca         1 4WB      -0.131300
      8 N1         -28.5930    -0.2080    32.4290 nh         1 4WB      -0.765400
      9 C8         -26.3600     0.6360    32.3750 c5         1 4WB       0.015300
     10 C9         -26.8650    -1.8500    31.8020 ca         1 4WB      -0.077300
     11 C10        -26.1640    -2.3810    30.7250 ca         1 4WB      -0.096000
     12 C11        -25.6910    -3.6830    30.7830 ca         1 4WB       0.121000
     13 C12        -25.9120    -4.4840    31.8900 ca         1 4WB      -0.098000
     14 C13        -26.6310    -3.9560    32.9540 ca         1 4WB      -0.109000
     15 C14        -27.1050    -2.6550    32.9140 ca         1 4WB      -0.093000
     16 CL1        -24.8160    -4.3260    29.4300 cl         1 4WB      -0.199000
     17 C15        -25.3160     1.0560    31.3380 c6         1 4WB      -0.064400
     18 C16        -25.6240     0.1020    33.6160 c6         1 4WB      -0.064400
     19 C17        -24.5510     1.0620    34.1000 c6         1 4WB       0.166300
     20 C18        -24.1940     1.9180    31.8990 c6         1 4WB       0.166300
     21 N2         -23.5750     1.3040    33.0550 n3         1 4WB      -0.712600
     22 C19        -22.4700     2.1000    33.5380 c3         1 4WB       0.152100
     23 C20        -29.7590    -0.8650    31.8800 c3         1 4WB       0.270100
     24 C21        -30.0500    -0.4900    30.4530 cc         1 4WB      -0.267300
     25 C22        -30.5610     0.6840    29.9700 cd         1 4WB      -0.130000
     26 C23        -30.6590     0.7040    28.5600 cd         1 4WB      -0.097000
     27 C24        -30.2210    -0.4580    27.9860 cc         1 4WB      -0.314600
     28 S1         -29.6830    -1.5730    29.1760 ss         1 4WB       0.340000
     29 C25        -30.1190    -0.8980    26.5810 c          1 4WB       0.645700
     30 N3         -30.7130    -0.0840    25.6880 ns         1 4WB      -0.378400
     31 O1         -29.5430    -1.9310    26.2870 o          1 4WB      -0.573100
     32 O2         -30.6540    -0.3720    24.3620 oh         1 4WB      -0.405100
     33 H1         -27.4300    -0.1420    30.6840 h1         1 4WB       0.049700
     34 H2         -26.2380     3.4970    33.1220 ha         1 4WB       0.114000
     35 H3         -28.1930     4.8160    33.8010 ha         1 4WB       0.114000
     36 H4         -30.4350     3.7780    33.8590 ha         1 4WB       0.110000
     37 H5         -30.7450     1.4260    33.2180 ha         1 4WB       0.115000
     38 H6         -25.9970    -1.7800    29.8400 ha         1 4WB       0.131000
     39 H7         -25.5420    -5.5000    31.9220 ha         1 4WB       0.130000
     40 H8         -26.8230    -4.5730    33.8230 ha         1 4WB       0.118000
     41 H9         -27.6680    -2.2640    33.7520 ha         1 4WB       0.130000
     42 H10        -25.7990     1.5820    30.5110 hc         1 4WB       0.055450
     43 H11        -24.8680     0.1490    30.9200 hc         1 4WB       0.055450
     44 H12        -26.3300    -0.1070    34.4240 hc         1 4WB       0.055450
     45 H13        -25.1350    -0.8410    33.3630 hc         1 4WB       0.055450
     46 H14        -24.0390     0.6180    34.9590 h1         1 4WB       0.031700
     47 H15        -25.0040     2.0010    34.4630 h1         1 4WB       0.031700
     48 H16        -23.4340     2.0530    31.1240 h1         1 4WB       0.031700
     49 H17        -24.5690     2.9280    32.1330 h1         1 4WB       0.031700
     50 H19        -21.9650     1.5860    34.3580 h1         1 4WB       0.029700
     51 H20        -21.7410     2.2530    32.7410 h1         1 4WB       0.029700
     52 H21        -22.7780     3.0920    33.9030 h1         1 4WB       0.029700
     53 H22        -30.6250    -0.6350    32.5030 h1         1 4WB       0.069200
     54 H23        -29.6160    -1.9440    31.9600 h1         1 4WB       0.069200
     55 H24        -30.8420     1.5160    30.6000 ha         1 4WB       0.142000
     56 H25        -31.0320     1.5580    28.0110 ha         1 4WB       0.131000
     57 H26        -31.3330     0.6710    25.9460 hn         1 4WB       0.339500
     58 H27        -31.4180    -0.9320    24.1600 ho         1 4WB       0.431000
@<TRIPOS>BOND
     1     1     8 1   
     2     1     9 1   
     3     1    10 1   
     4     1    33 1   
     5     2     3 ar  
     6     2     7 ar  
     7     2    34 1   
     8     3     4 ar  
     9     3    35 1   
    10     4     5 ar  
    11     4    36 1   
    12     5     6 ar  
    13     5    37 1   
    14     6     7 ar  
    15     6     8 1   
    16     7     9 1   
    17     8    23 1   
    18     9    17 1   
    19     9    18 1   
    20    10    11 ar  
    21    10    15 ar  
    22    11    12 ar  
    23    11    38 1   
    24    12    13 ar  
    25    12    16 1   
    26    13    14 ar  
    27    13    39 1   
    28    14    15 ar  
    29    14    40 1   
    30    15    41 1   
    31    17    20 1   
    32    17    42 1   
    33    17    43 1   
    34    18    19 1   
    35    18    44 1   
    36    18    45 1   
    37    19    21 1   
    38    19    46 1   
    39    19    47 1   
    40    20    21 1   
    41    20    48 1   
    42    20    49 1   
    43    21    22 1   
    44    22    50 1   
    45    22    51 1   
    46    22    52 1   
    47    23    24 1   
    48    23    53 1   
    49    23    54 1   
    50    24    25 2   
    51    24    28 1   
    52    25    26 1   
    53    25    55 1   
    54    26    27 2   
    55    26    56 1   
    56    27    28 1   
    57    27    29 1   
    58    29    30 1   
    59    29    31 2   
    60    30    32 1   
    61    30    57 1   
    62    32    58 1   
@<TRIPOS>SUBSTRUCTURE
     1 4WB         1 TEMP              0 ****  ****    0 ROOT
