@<TRIPOS>MOLECULE
4WB
   58    62     1     0     0
SMALL
No Charge or Current Charge


@<TRIPOS>ATOM
      1 C7         -27.1690    -0.7930    31.5590 c5         1 4WB       0.240800
      2 C1         -27.2730     2.7740    33.0700 ca         1 4WB      -0.062000
      3 C2         -28.3050     3.6010    33.5490 ca         1 4WB      -0.148000
      4 C3         -29.6080     3.1070    33.6990 ca         1 4WB      -0.080000
      5 C4         -29.8820     1.7760    33.3610 ca         1 4WB      -0.157000
      6 C5         -28.8490     0.9550    32.8760 ca         1 4WB       0.275000
      7 C6         -27.5110     1.4230    32.7140 ca         1 4WB      -0.131300
      8 N1         -29.0190    -0.3530    32.4710 nh         1 4WB      -0.765400
      9 C8         -26.3640     0.4270    32.2180 c5         1 4WB       0.015300
     10 C9         -26.6000    -2.1630    31.9310 ca         1 4WB      -0.077300
     11 C10        -25.6120    -2.7600    31.1210 ca         1 4WB      -0.096000
     12 C11        -25.0840    -4.0180    31.4520 ca         1 4WB       0.121000
     13 C12        -25.5410    -4.6990    32.5910 ca         1 4WB      -0.098000
     14 C13        -26.5310    -4.1190    33.4010 ca         1 4WB      -0.109000
     15 C14        -27.0590    -2.8580    33.0700 ca         1 4WB      -0.093000
     16 Cl1        -23.8480    -4.7440    30.4340 cl         1 4WB      -0.199000
     17 C15        -25.4030     1.0220    31.1270 c6         1 4WB      -0.064400
     18 C16        -25.4760     0.0130    33.4460 c6         1 4WB      -0.064400
     19 C17        -24.4880     1.1060    33.9090 c6         1 4WB       0.166300
     20 C18        -24.2880     1.9870    31.6170 c6         1 4WB       0.166300
     21 N2         -23.5630     1.4760    32.8090 n3         1 4WB      -0.712600
     22 C19        -22.4920     2.3950    33.2520 c3         1 4WB       0.152100
     23 C20        -30.2650    -0.8510    31.8650 c3         1 4WB       0.270100
     24 C21        -30.4100    -0.4490    30.4250 cc         1 4WB      -0.267300
     25 C22        -30.7040     0.7930    29.9150 cd         1 4WB      -0.130000
     26 C23        -30.7500     0.8300    28.4960 cd         1 4WB      -0.097000
     27 C24        -30.4870    -0.3950    27.9200 cc         1 4WB      -0.314600
     28 S1         -30.1790    -1.6270    29.1350 ss         1 4WB       0.340000
     29 C25        -30.4510    -0.7150    26.4790 c          1 4WB       0.645700
     30 N3         -30.7090     0.3660    25.6470 ns         1 4WB      -0.378400
     31 O1         -30.2220    -1.8370    26.0470 o          1 4WB      -0.573100
     32 O2         -30.4560     0.2900    24.2220 oh         1 4WB      -0.405100
     33 H1         -27.2540    -0.6840    30.4690 h1         1 4WB       0.049700
     34 H2         -26.2880     3.2100    33.0030 ha         1 4WB       0.114000
     35 H3         -28.0870     4.6330    33.8150 ha         1 4WB       0.114000
     36 H4         -30.4000     3.7520    34.0740 ha         1 4WB       0.110000
     37 H5         -30.8900     1.3930    33.4780 ha         1 4WB       0.115000
     38 H6         -25.2490    -2.2470    30.2330 ha         1 4WB       0.131000
     39 H7         -25.1290    -5.6730    32.8440 ha         1 4WB       0.130000
     40 H8         -26.8890    -4.6440    34.2840 ha         1 4WB       0.118000
     41 H9         -27.8230    -2.4170    33.7060 ha         1 4WB       0.130000
     42 H10        -25.9940     1.5190    30.3460 hc         1 4WB       0.055450
     43 H11        -24.8970     0.1870    30.6240 hc         1 4WB       0.055450
     44 H12        -26.1180    -0.2820    34.2870 hc         1 4WB       0.055450
     45 H13        -24.8640    -0.8640    33.2020 hc         1 4WB       0.055450
     46 H14        -23.9130     0.7070    34.7580 h1         1 4WB       0.031700
     47 H15        -25.0300     1.9820    34.2870 h1         1 4WB       0.031700
     48 H16        -23.5760     2.1200    30.7890 h1         1 4WB       0.031700
     49 H17        -24.6960     2.9870    31.8040 h1         1 4WB       0.031700
     50 H19        -21.9260     1.9570    34.0850 h1         1 4WB       0.029700
     51 H20        -21.7880     2.5940    32.4330 h1         1 4WB       0.029700
     52 H21        -22.9120     3.3530    33.5870 h1         1 4WB       0.029700
     53 H22        -31.1430    -0.5080    32.4290 h1         1 4WB       0.069200
     54 H23        -30.2770    -1.9480    31.9280 h1         1 4WB       0.069200
     55 H24        -30.8800     1.6660    30.5370 ha         1 4WB       0.142000
     56 H25        -30.9720     1.7390    27.9450 ha         1 4WB       0.131000
     57 H26        -30.7340     1.2990    26.0490 hn         1 4WB       0.339500
     58 H27        -31.2910     0.6300    23.8230 ho         1 4WB       0.431000
@<TRIPOS>BOND
     1     1     8 1   
     2     1     9 1   
     3     1    10 1   
     4     1    33 1   
     5     2     3 ar  
     6     2     7 ar  
     7     2    34 1   
     8     3     4 ar  
     9     3    35 1   
    10     4     5 ar  
    11     4    36 1   
    12     5     6 ar  
    13     5    37 1   
    14     6     7 ar  
    15     6     8 1   
    16     7     9 1   
    17     8    23 1   
    18     9    17 1   
    19     9    18 1   
    20    10    11 ar  
    21    10    15 ar  
    22    11    12 ar  
    23    11    38 1   
    24    12    13 ar  
    25    12    16 1   
    26    13    14 ar  
    27    13    39 1   
    28    14    15 ar  
    29    14    40 1   
    30    15    41 1   
    31    17    20 1   
    32    17    42 1   
    33    17    43 1   
    34    18    19 1   
    35    18    44 1   
    36    18    45 1   
    37    19    21 1   
    38    19    46 1   
    39    19    47 1   
    40    20    21 1   
    41    20    48 1   
    42    20    49 1   
    43    21    22 1   
    44    22    50 1   
    45    22    51 1   
    46    22    52 1   
    47    23    24 1   
    48    23    53 1   
    49    23    54 1   
    50    24    25 2   
    51    24    28 1   
    52    25    26 1   
    53    25    55 1   
    54    26    27 2   
    55    26    56 1   
    56    27    28 1   
    57    27    29 1   
    58    29    30 1   
    59    29    31 2   
    60    30    32 1   
    61    30    57 1   
    62    32    58 1   
@<TRIPOS>SUBSTRUCTURE
     1 4WB         1 TEMP              0 ****  ****    0 ROOT
