@<TRIPOS>MOLECULE
4WC
   27    27     1     0     0
SMALL
No Charge or Current Charge


@<TRIPOS>ATOM
      1 CAD         -1.9860     0.3740    -1.3520 c6         1 4WC      -0.070900
      2 CAC         -3.4450     0.6020    -0.8840 c6         1 4WC      -0.072400
      3 CAB         -3.8860    -0.4890     0.1200 c6         1 4WC      -0.070400
      4 CAG         -2.9170    -0.5600     1.3230 c6         1 4WC      -0.072400
      5 CAF         -1.4550    -0.7840     0.8590 c6         1 4WC      -0.070900
      6 CAE         -0.9980     0.3090    -0.1520 c6         1 4WC      -0.056700
      7 CAH          0.4660     0.0890    -0.6550 c3         1 4WC      -0.066400
      8 CAI          1.5870     0.1340     0.4210 c3         1 4WC       0.021300
      9 CBM          2.9820    -0.2430    -0.2060 c          1 4WC       0.689000
     10 OBO          3.2650    -1.4250    -0.3440 o          1 4WC      -0.723500
     11 OBN          3.7740     0.6690    -0.4140 o          1 4WC      -0.723500
     12 O3           1.6160     1.4450     1.0450 oh         1 4WC      -0.716000
     13 HAD1        -1.9300    -0.5570    -1.9330 hc         1 4WC       0.037200
     14 HAD2        -1.6940     1.1840    -2.0350 hc         1 4WC       0.037200
     15 HAC1        -3.5330     1.5930    -0.4170 hc         1 4WC       0.026200
     16 HAC2        -4.1190     0.6040    -1.7510 hc         1 4WC       0.026200
     17 HAE         -1.0160     1.2840     0.3560 hc         1 4WC       0.054700
     18 HAB1        -4.9050    -0.2810     0.4740 hc         1 4WC       0.023700
     19 HAB2        -3.9230    -1.4640    -0.3850 hc         1 4WC       0.023700
     20 HAG1        -2.9800     0.3700     1.9050 hc         1 4WC       0.026200
     21 HAG2        -3.2210    -1.3710     1.9990 hc         1 4WC       0.026200
     22 HAF1        -0.8020    -0.7870     1.7410 hc         1 4WC       0.037200
     23 HAF2        -1.3640    -1.7790     0.4000 hc         1 4WC       0.037200
     24 HAH1         0.5230    -0.8810    -1.1640 hc         1 4WC       0.039700
     25 HAH2         0.7030     0.8380    -1.4210 hc         1 4WC       0.039700
     26 HAI          1.3730    -0.6290     1.1810 h1         1 4WC       0.025700
     27 H3           2.4580     1.8530     0.7240 ho         1 4WC       0.473000
@<TRIPOS>BOND
     1     1     2 1   
     2     1     6 1   
     3     1    13 1   
     4     1    14 1   
     5     2     3 1   
     6     2    15 1   
     7     2    16 1   
     8     3     4 1   
     9     3    18 1   
    10     3    19 1   
    11     4     5 1   
    12     4    20 1   
    13     4    21 1   
    14     5     6 1   
    15     5    22 1   
    16     5    23 1   
    17     6     7 1   
    18     6    17 1   
    19     7     8 1   
    20     7    24 1   
    21     7    25 1   
    22     8     9 1   
    23     8    12 1   
    24     8    26 1   
    25     9    10 1   
    26     9    11 1   
    27    12    27 1   
@<TRIPOS>SUBSTRUCTURE
     1 4WC         1 TEMP              0 ****  ****    0 ROOT
