@<TRIPOS>MOLECULE
4WC
   27    27     1     0     0
SMALL
bcc


@<TRIPOS>ATOM
      1 CAD         -1.9600     0.3220    -1.3420 c6         1 4WC      -0.070900
      2 CAC         -3.3960     0.5740    -0.8950 c6         1 4WC      -0.072400
      3 CAB         -3.8420    -0.4510     0.1420 c6         1 4WC      -0.070400
      4 CAG         -2.8750    -0.4900     1.3210 c6         1 4WC      -0.072400
      5 CAF         -1.4420    -0.7430     0.8630 c6         1 4WC      -0.070900
      6 CAE         -0.9810     0.2890    -0.1680 c6         1 4WC      -0.056700
      7 CAH          0.4390     0.0280    -0.6670 c3         1 4WC      -0.066400
      8 CAI          1.5230     0.0910     0.4060 c3         1 4WC      -0.001900
      9 CBM          2.9200    -0.1310    -0.2140 c          1 4WC       0.899600
     10 OBO          3.1320    -1.2030    -0.8010 o          1 4WC      -0.828800
     11 OBN          3.7200     0.8220    -0.0600 o          1 4WC      -0.828800
     12 O3           1.5090     1.3290     1.0770 oh         1 4WC      -0.653800
     13 HAD1        -1.9100    -0.6360    -1.8750 hc         1 4WC       0.037200
     14 HAD2        -1.6510     1.0860    -2.0610 hc         1 4WC       0.037200
     15 HAC1        -3.4720     1.5790    -0.4680 hc         1 4WC       0.026200
     16 HAC2        -4.0670     0.5550    -1.7580 hc         1 4WC       0.026200
     17 HAE         -0.9990     1.2760     0.3120 hc         1 4WC       0.054700
     18 HAB1        -4.8550    -0.2280     0.4870 hc         1 4WC       0.023700
     19 HAB2        -3.8830    -1.4420    -0.3240 hc         1 4WC       0.023700
     20 HAG1        -2.9170     0.4660     1.8550 hc         1 4WC       0.026200
     21 HAG2        -3.1800    -1.2560     2.0380 hc         1 4WC       0.026200
     22 HAF1        -0.7740    -0.7430     1.7280 hc         1 4WC       0.037200
     23 HAF2        -1.3720    -1.7450     0.4200 hc         1 4WC       0.037200
     24 HAH1         0.4760    -0.9580    -1.1410 hc         1 4WC       0.039700
     25 HAH2         0.6740     0.7570    -1.4520 hc         1 4WC       0.039700
     26 HAI          1.3520    -0.7210     1.1280 h1         1 4WC       0.025700
     27 H3           2.4030     1.6700     0.8830 ho         1 4WC       0.434000
@<TRIPOS>BOND
     1     1     2 1   
     2     1     6 1   
     3     1    13 1   
     4     1    14 1   
     5     2     3 1   
     6     2    15 1   
     7     2    16 1   
     8     3     4 1   
     9     3    18 1   
    10     3    19 1   
    11     4     5 1   
    12     4    20 1   
    13     4    21 1   
    14     5     6 1   
    15     5    22 1   
    16     5    23 1   
    17     6     7 1   
    18     6    17 1   
    19     7     8 1   
    20     7    24 1   
    21     7    25 1   
    22     8     9 1   
    23     8    12 1   
    24     8    26 1   
    25     9    10 1   
    26     9    11 1   
    27    12    27 1   
@<TRIPOS>SUBSTRUCTURE
     1 4WC         1 TEMP              0 ****  ****    0 ROOT
