@<TRIPOS>MOLECULE
4WD
   27    28     1     0     0
SMALL
No Charge or Current Charge


@<TRIPOS>ATOM
      1 C15        -35.8840    27.8560    10.1400 ca         1 4WD      -0.026000
      2 C16        -36.2640    28.8420     9.2130 ca         1 4WD      -0.216000
      3 C01        -37.0940    30.8880     7.3320 c3         1 4WD       0.144900
      4 O02        -37.7660    30.6640     8.5830 os         1 4WD      -0.319100
      5 C03        -37.3680    29.6830     9.4780 ca         1 4WD       0.195100
      6 C04        -38.0830    29.5270    10.6890 ca         1 4WD      -0.015000
      7 C05        -37.6940    28.5360    11.6100 ca         1 4WD      -0.015000
      8 C06        -36.6020    27.6890    11.3370 ca         1 4WD      -0.139800
      9 C07        -36.1730    26.6410    12.3070 ce         1 4WD       0.001800
     10 C08        -36.9380    25.7480    13.0290 cd         1 4WD      -0.174600
     11 S09        -38.6990    25.6680    12.9370 ss         1 4WD      -0.045200
     12 C10        -38.7750    24.3090    14.0790 cs         1 4WD       0.328000
     13 S11        -40.1480    23.5260    14.6180 s          1 4WD      -0.411400
     14 N12        -37.4890    24.0230    14.4260 ns         1 4WD      -0.399500
     15 C13        -36.4190    24.7100    13.9360 c          1 4WD       0.573200
     16 O14        -35.2530    24.4830    14.2150 o          1 4WD      -0.484000
     17 C17        -39.2060    30.3680    11.0080 cg         1 4WD      -0.126000
     18 C18        -40.1560    31.0720    11.2880 c1         1 4WD      -0.208000
     19 H1         -35.0330    27.2150     9.9210 ha         1 4WD       0.118000
     20 H2         -35.6890    28.9360     8.2980 ha         1 4WD       0.126000
     21 H3         -37.5750    31.7070     6.7830 h1         1 4WD       0.048367
     22 H4         -36.0430    31.1610     7.4960 h1         1 4WD       0.048367
     23 H5         -37.1310    29.9900     6.7010 h1         1 4WD       0.048367
     24 H6         -38.2350    28.4390    12.5480 ha         1 4WD       0.131000
     25 H7         -35.0920    26.5370    12.4240 ha         1 4WD       0.197000
     26 H9         -37.3080    23.2680    15.0730 hn         1 4WD       0.360500
     27 H10        -40.9940    31.6970    11.5280 ha         1 4WD       0.259000
@<TRIPOS>BOND
     1     1     2 ar  
     2     1     8 ar  
     3     1    19 1   
     4     2     5 ar  
     5     2    20 1   
     6     3     4 1   
     7     3    21 1   
     8     3    22 1   
     9     3    23 1   
    10     4     5 1   
    11     5     6 ar  
    12     6     7 ar  
    13     6    17 1   
    14     7     8 ar  
    15     7    24 1   
    16     8     9 1   
    17     9    10 2   
    18     9    25 1   
    19    10    11 1   
    20    10    15 1   
    21    11    12 1   
    22    12    13 2   
    23    12    14 1   
    24    14    15 1   
    25    14    26 1   
    26    15    16 2   
    27    17    18 3   
    28    18    27 1   
@<TRIPOS>SUBSTRUCTURE
     1 4WD         1 TEMP              0 ****  ****    0 ROOT
