@<TRIPOS>MOLECULE
4WD
   27    28     1     0     0
SMALL
abcg2


@<TRIPOS>ATOM
      1 C15        -35.9070    27.8780    10.1210 ca         1 4WD      -0.026000
      2 C16        -36.1880    28.9220     9.2630 ca         1 4WD      -0.216000
      3 C01        -36.8580    31.1060     7.6170 c3         1 4WD       0.144900
      4 O02        -37.7120    30.6950     8.6740 os         1 4WD      -0.319100
      5 C03        -37.3490    29.6730     9.4400 ca         1 4WD       0.195100
      6 C04        -38.2180    29.3550    10.5040 ca         1 4WD      -0.015000
      7 C05        -37.9190    28.2950    11.3470 ca         1 4WD      -0.015000
      8 C06        -36.7630    27.5290    11.1730 ca         1 4WD      -0.139800
      9 C07        -36.3800    26.4080    12.0020 ce         1 4WD       0.001800
     10 C08        -37.0500    25.7480    12.9620 cd         1 4WD      -0.174600
     11 S09        -38.6860    25.9930    13.5410 ss         1 4WD      -0.045200
     12 C10        -38.5760    24.6590    14.6560 cs         1 4WD       0.328000
     13 S11        -39.8020    24.2060    15.6350 s          1 4WD      -0.411400
     14 N12        -37.3530    24.0910    14.5730 ns         1 4WD      -0.399500
     15 C13        -36.4350    24.6100    13.6750 c          1 4WD       0.573200
     16 O14        -35.3200    24.1740    13.5280 o          1 4WD      -0.484000
     17 C17        -39.3930    30.1320    10.7150 cg         1 4WD      -0.126000
     18 C18        -40.3860    30.7810    10.9130 c1         1 4WD      -0.208000
     19 H1         -34.9960    27.3110     9.9690 ha         1 4WD       0.118000
     20 H2         -35.4930    29.1430     8.4640 ha         1 4WD       0.126000
     21 H3         -37.3390    31.9630     7.1540 h1         1 4WD       0.048367
     22 H4         -35.8760    31.4050     7.9890 h1         1 4WD       0.048367
     23 H5         -36.7360    30.3190     6.8700 h1         1 4WD       0.048367
     24 H6         -38.6090    28.1120    12.1590 ha         1 4WD       0.131000
     25 H7         -35.3830    26.0230    11.8080 ha         1 4WD       0.197000
     26 H9         -37.1180    23.2960    15.1560 hn         1 4WD       0.360500
     27 H10        -41.2660    31.3570    11.0890 ha         1 4WD       0.259000
@<TRIPOS>BOND
     1     1     2 ar  
     2     1     8 ar  
     3     1    19 1   
     4     2     5 ar  
     5     2    20 1   
     6     3     4 1   
     7     3    21 1   
     8     3    22 1   
     9     3    23 1   
    10     4     5 1   
    11     5     6 ar  
    12     6     7 ar  
    13     6    17 1   
    14     7     8 ar  
    15     7    24 1   
    16     8     9 1   
    17     9    10 2   
    18     9    25 1   
    19    10    11 1   
    20    10    15 1   
    21    11    12 1   
    22    12    13 2   
    23    12    14 1   
    24    14    15 1   
    25    14    26 1   
    26    15    16 2   
    27    17    18 3   
    28    18    27 1   
@<TRIPOS>SUBSTRUCTURE
     1 4WD         1 TEMP              0 ****  ****    0 ROOT
