@<TRIPOS>MOLECULE
4WE
   66    69     1     0     0
SMALL
abcg2


@<TRIPOS>ATOM
      1 C1           8.2950     1.9260    -0.9150 c3         1 4WE      -0.106100
      2 C2           7.0840     1.0800    -1.2780 c3         1 4WE       0.088300
      3 C3           6.9340     0.8680    -2.7790 c3         1 4WE      -0.106100
      4 C5           7.9410    -1.2160    -0.6060 cc         1 4WE       0.431800
      5 C6           9.2760    -1.1620    -1.2590 c3         1 4WE      -0.123400
      6 C8           6.2480    -1.9720     0.4540 cd         1 4WE       0.297900
      7 C12          2.4590     0.1010     0.5930 ca         1 4WE       0.380900
      8 N13          2.3950     1.2840     1.1900 nb         1 4WE      -0.208000
      9 C15          4.7500     1.2840     1.1460 ca         1 4WE       0.006000
     10 C18         -0.0180    -0.2750     0.4650 ca         1 4WE       0.340000
     11 C19         -0.5080     0.9390     0.9570 ca         1 4WE      -0.167000
     12 C21         -2.7930     0.1600     0.6950 ca         1 4WE      -0.184600
     13 C23         -0.9400    -1.2610     0.0880 ca         1 4WE      -0.167000
     14 C24         -4.2470     0.4660     0.8110 c          1 4WE       0.618700
     15 O25         -4.6510     1.6230     0.8000 o          1 4WE      -0.606100
     16 C27         -6.5110    -0.4660     0.9630 c3         1 4WE       0.100000
     17 C30         -9.2320    -1.0340    -1.5080 c6         1 4WE       0.169300
     18 C31        -10.7410    -0.8840    -1.3860 c6         1 4WE      -0.075400
     19 C32        -11.1350     0.5870    -1.3340 c6         1 4WE      -0.075400
     20 C33        -10.3570     1.2920    -0.2310 c6         1 4WE      -0.075400
     21 C34         -8.8640     1.0590    -0.4000 c6         1 4WE       0.169300
     22 N4           7.0450    -0.1970    -0.5500 na         1 4WE      -0.141500
     23 N7           7.4870    -2.2890     0.0060 nd         1 4WE      -0.685000
     24 C9           5.9470    -0.6790     0.1300 cc         1 4WE      -0.302500
     25 C10          4.7390     0.0600     0.4830 ca         1 4WE       0.235500
     26 N11          3.5790    -0.5240     0.2240 nb         1 4WE      -0.223000
     27 C14          3.5500     1.8690     1.4710 ca         1 4WE       0.119900
     28 N17          1.3190    -0.5890     0.2990 nu         1 4WE      -0.923900
     29 C20         -1.8740     1.1420     1.0520 ca         1 4WE      -0.041000
     30 C22         -2.2970    -1.0480     0.2040 ca         1 4WE      -0.041000
     31 N26         -5.0720    -0.5880     0.9460 ns         1 4WE      -0.507900
     32 C28         -7.1160    -0.5900    -0.4350 c3         1 4WE       0.148800
     33 N29         -8.5470    -0.3610    -0.4160 n3         1 4WE      -0.726600
     34 H1           8.1390     2.9390    -1.2840 hc         1 4WE       0.049867
     35 H2           8.4340     1.9810     0.1630 hc         1 4WE       0.049867
     36 H3           9.2150     1.5570    -1.3650 hc         1 4WE       0.049867
     37 H4           6.2000     1.6240    -0.9520 h1         1 4WE       0.063700
     38 H5           7.8070     0.3880    -3.2210 hc         1 4WE       0.049867
     39 H6           6.0560     0.2630    -3.0060 hc         1 4WE       0.049867
     40 H7           6.8100     1.8340    -3.2680 hc         1 4WE       0.049867
     41 H8           9.9580    -0.4850    -0.7440 hc         1 4WE       0.056033
     42 H9           9.7110    -2.1590    -1.2330 hc         1 4WE       0.056033
     43 H10          9.2230    -0.8490    -2.3010 hc         1 4WE       0.056033
     44 H11          5.6390    -2.6640     1.0160 h4         1 4WE       0.045100
     45 H12          0.1670     1.7220     1.2580 ha         1 4WE       0.133500
     46 H13         -0.5830    -2.2040    -0.3100 ha         1 4WE       0.133500
     47 H14         -6.9140    -1.2500     1.6040 h1         1 4WE       0.063200
     48 H15         -6.7740     0.4880     1.4190 h1         1 4WE       0.063200
     49 H17         -8.9080    -0.6420    -2.4890 h1         1 4WE       0.031450
     50 H18        -11.2220    -1.3850    -2.2290 hc         1 4WE       0.045700
     51 H19        -11.0790    -1.3900    -0.4760 hc         1 4WE       0.045700
     52 H20        -10.9010     1.0550    -2.2960 hc         1 4WE       0.038700
     53 H21        -12.2110     0.6970    -1.1820 hc         1 4WE       0.038700
     54 H22        -10.5570     2.3660    -0.2380 hc         1 4WE       0.045700
     55 H23        -10.6720     0.9130     0.7450 hc         1 4WE       0.045700
     56 H24         -8.5250     1.5450    -1.3330 h1         1 4WE       0.031450
     57 H25         -8.3200     1.5410     0.4150 h1         1 4WE       0.031450
     58 H26          3.5190     2.8260     1.9820 h4         1 4WE       0.043100
     59 H27          1.5020    -1.4830    -0.1320 hn         1 4WE       0.515000
     60 H28         -2.2290     2.0940     1.4240 ha         1 4WE       0.123000
     61 H29         -2.9630    -1.8370    -0.1230 ha         1 4WE       0.123000
     62 H30         -4.6850    -1.5150     1.0020 hn         1 4WE       0.312500
     63 H31         -6.5960     0.0940    -1.1250 h1         1 4WE       0.035200
     64 H32         -6.9250    -1.6020    -0.8020 h1         1 4WE       0.035200
     65 F16          5.9050     1.8680     1.4880 f          1 4WE      -0.159000
     66 H16         -8.9630    -2.0930    -1.4880 h1         1 4WE       0.031450
@<TRIPOS>BOND
     1     1     2 1   
     2     1    34 1   
     3     1    35 1   
     4     1    36 1   
     5     2     3 1   
     6     2    22 1   
     7     2    37 1   
     8     3    38 1   
     9     3    39 1   
    10     3    40 1   
    11     4     5 1   
    12     4    22 1   
    13     4    23 2   
    14     5    41 1   
    15     5    42 1   
    16     5    43 1   
    17     6    23 1   
    18     6    24 2   
    19     6    44 1   
    20     7     8 ar  
    21     7    26 ar  
    22     7    28 1   
    23     8    27 ar  
    24     9    25 ar  
    25     9    27 ar  
    26     9    65 1   
    27    10    11 ar  
    28    10    13 ar  
    29    10    28 1   
    30    11    29 ar  
    31    11    45 1   
    32    12    14 1   
    33    12    29 ar  
    34    12    30 ar  
    35    13    30 ar  
    36    13    46 1   
    37    14    15 2   
    38    14    31 1   
    39    16    31 1   
    40    16    32 1   
    41    16    47 1   
    42    16    48 1   
    43    17    18 1   
    44    17    33 1   
    45    17    49 1   
    46    17    66 1   
    47    18    19 1   
    48    18    50 1   
    49    18    51 1   
    50    19    20 1   
    51    19    52 1   
    52    19    53 1   
    53    20    21 1   
    54    20    54 1   
    55    20    55 1   
    56    21    33 1   
    57    21    56 1   
    58    21    57 1   
    59    22    24 1   
    60    24    25 1   
    61    25    26 ar  
    62    27    58 1   
    63    28    59 1   
    64    29    60 1   
    65    30    61 1   
    66    31    62 1   
    67    32    33 1   
    68    32    63 1   
    69    32    64 1   
@<TRIPOS>SUBSTRUCTURE
     1 4WE         1 TEMP              0 ****  ****    0 ROOT
