@<TRIPOS>MOLECULE
4WE
   66    69     1     0     0
SMALL
No Charge or Current Charge


@<TRIPOS>ATOM
      1 C1           8.5740     1.8600    -0.9850 c3         1 4WE      -0.106100
      2 C2           7.2980     1.0550    -1.3150 c3         1 4WE       0.088300
      3 C3           7.0940     0.8570    -2.8320 c3         1 4WE      -0.106100
      4 C5           8.0440    -1.3070    -0.5460 cc         1 4WE       0.431800
      5 C6           9.4010    -1.3760    -1.1910 c3         1 4WE      -0.123400
      6 C8           6.2950    -1.9020     0.5840 cd         1 4WE       0.297900
      7 C12          2.5660     0.1200     0.6410 ca         1 4WE       0.380900
      8 N13          2.4660     1.3530     1.1740 nb         1 4WE      -0.208000
      9 C15          4.8640     1.4150     1.1190 ca         1 4WE       0.006000
     10 C18          0.0360    -0.3110     0.4660 ca         1 4WE       0.340000
     11 C19         -0.4640     0.9830     0.2450 ca         1 4WE      -0.167000
     12 C21         -2.7620     0.1880     0.5490 ca         1 4WE      -0.184600
     13 C23         -0.8680    -1.3560     0.7060 ca         1 4WE      -0.167000
     14 C24         -4.2450     0.4950     0.5910 c          1 4WE       0.618700
     15 O25         -4.6810     1.6230     0.4060 o          1 4WE      -0.606100
     16 C27         -6.5570    -0.4700     0.8990 c3         1 4WE       0.100000
     17 C30         -9.2070    -0.4340    -1.9260 c6         1 4WE       0.169300
     18 C31        -10.7430    -0.6250    -1.9570 c6         1 4WE      -0.075400
     19 C32        -11.4560     0.4940    -1.1660 c6         1 4WE      -0.075400
     20 C33        -10.8780     0.5810     0.2640 c6         1 4WE      -0.075400
     21 C34         -9.3370     0.7340     0.2360 c6         1 4WE       0.169300
     22 N4           7.1780    -0.2150    -0.5510 na         1 4WE      -0.141500
     23 N7           7.5200    -2.3290     0.1200 nd         1 4WE      -0.685000
     24 C9           6.1050    -0.5930     0.2360 cc         1 4WE      -0.302500
     25 C10          4.8660     0.1180     0.5560 ca         1 4WE       0.235500
     26 N11          3.7020    -0.5330     0.3390 nb         1 4WE      -0.223000
     27 C14          3.6230     2.0020     1.4130 ca         1 4WE       0.119900
     28 N17          1.4020    -0.6060     0.4150 nu         1 4WE      -0.923900
     29 C20         -1.8470     1.2320     0.2900 ca         1 4WE      -0.041000
     30 C22         -2.2520    -1.1160     0.7540 ca         1 4WE      -0.041000
     31 N26         -5.0900    -0.5620     0.8520 ns         1 4WE      -0.507900
     32 C28         -7.1980    -0.3080    -0.5040 c3         1 4WE       0.148800
     33 N29         -8.6840    -0.3690    -0.5310 n3         1 4WE      -0.726600
     34 H1           8.5010     2.8720    -1.4020 hc         1 4WE       0.049867
     35 H2           8.7030     1.9520     0.1000 hc         1 4WE       0.049867
     36 H3           9.4690     1.3920    -1.4060 hc         1 4WE       0.049867
     37 H4           6.4610     1.6870    -0.9980 h1         1 4WE       0.063700
     38 H5           7.9110     0.2850    -3.2830 hc         1 4WE       0.049867
     39 H6           6.1540     0.3250    -3.0250 hc         1 4WE       0.049867
     40 H7           7.0420     1.8280    -3.3400 hc         1 4WE       0.049867
     41 H8          10.1200    -0.7560    -0.6450 hc         1 4WE       0.056033
     42 H9           9.7840    -2.4030    -1.1860 hc         1 4WE       0.056033
     43 H10          9.3750    -1.0440    -2.2330 hc         1 4WE       0.056033
     44 H11          5.6390    -2.5490     1.1560 h4         1 4WE       0.045100
     45 H12          0.2080     1.8030     0.0180 ha         1 4WE       0.133500
     46 H13         -0.4980    -2.3640     0.8680 ha         1 4WE       0.133500
     47 H14         -6.9470    -1.3840     1.3660 h1         1 4WE       0.063200
     48 H15         -6.8330     0.3790     1.5370 h1         1 4WE       0.063200
     49 H17         -8.9490     0.4870    -2.4700 h1         1 4WE       0.031450
     50 H18        -11.0950    -0.6340    -2.9980 hc         1 4WE       0.045700
     51 H19        -10.9990    -1.6040    -1.5310 hc         1 4WE       0.045700
     52 H20        -11.3220     1.4560    -1.6810 hc         1 4WE       0.038700
     53 H21        -12.5370     0.3020    -1.1280 hc         1 4WE       0.038700
     54 H22        -11.3260     1.4290     0.7990 hc         1 4WE       0.045700
     55 H23        -11.1450    -0.3230     0.8280 hc         1 4WE       0.045700
     56 H24         -9.0810     1.7080    -0.2090 h1         1 4WE       0.031450
     57 H25         -8.9810     0.7510     1.2760 h1         1 4WE       0.031450
     58 H26          3.5520     2.9940     1.8560 h4         1 4WE       0.043100
     59 H27          1.5940    -1.5920     0.2400 hn         1 4WE       0.515000
     60 H28         -2.2040     2.2460     0.1150 ha         1 4WE       0.123000
     61 H29         -2.9120    -1.9580     0.9520 ha         1 4WE       0.123000
     62 H30         -4.6620    -1.4660     1.0000 hn         1 4WE       0.312500
     63 H31         -6.8580     0.6410    -0.9400 h1         1 4WE       0.035200
     64 H32         -6.7970    -1.1110    -1.1370 h1         1 4WE       0.035200
     65 F16          6.0130     2.0670     1.4180 f          1 4WE      -0.159000
     66 H16         -8.7400    -1.2700    -2.4680 h1         1 4WE       0.031450
@<TRIPOS>BOND
     1     1     2 1   
     2     1    34 1   
     3     1    35 1   
     4     1    36 1   
     5     2     3 1   
     6     2    22 1   
     7     2    37 1   
     8     3    38 1   
     9     3    39 1   
    10     3    40 1   
    11     4     5 1   
    12     4    22 1   
    13     4    23 2   
    14     5    41 1   
    15     5    42 1   
    16     5    43 1   
    17     6    23 1   
    18     6    24 2   
    19     6    44 1   
    20     7     8 ar  
    21     7    26 ar  
    22     7    28 1   
    23     8    27 ar  
    24     9    25 ar  
    25     9    27 ar  
    26     9    65 1   
    27    10    11 ar  
    28    10    13 ar  
    29    10    28 1   
    30    11    29 ar  
    31    11    45 1   
    32    12    14 1   
    33    12    29 ar  
    34    12    30 ar  
    35    13    30 ar  
    36    13    46 1   
    37    14    15 2   
    38    14    31 1   
    39    16    31 1   
    40    16    32 1   
    41    16    47 1   
    42    16    48 1   
    43    17    18 1   
    44    17    33 1   
    45    17    49 1   
    46    17    66 1   
    47    18    19 1   
    48    18    50 1   
    49    18    51 1   
    50    19    20 1   
    51    19    52 1   
    52    19    53 1   
    53    20    21 1   
    54    20    54 1   
    55    20    55 1   
    56    21    33 1   
    57    21    56 1   
    58    21    57 1   
    59    22    24 1   
    60    24    25 1   
    61    25    26 ar  
    62    27    58 1   
    63    28    59 1   
    64    29    60 1   
    65    30    61 1   
    66    31    62 1   
    67    32    33 1   
    68    32    63 1   
    69    32    64 1   
@<TRIPOS>SUBSTRUCTURE
     1 4WE         1 TEMP              0 ****  ****    0 ROOT
