@<TRIPOS>MOLECULE
4WF
   28    29     1     0     0
SMALL
abcg2


@<TRIPOS>ATOM
      1 C            1.0970    -0.7880    -0.3680 cc         1 4WF       0.344700
      2 N            2.8270    -1.9670     0.7160 nv         1 4WF      -0.900000
      3 O            0.5020    -1.9390    -0.5760 oh         1 4WF      -0.518100
      4 CA           2.2950    -0.7300     0.2870 cd         1 4WF      -0.282200
      5 CB           2.9180     0.5380     0.4880 c          1 4WF       0.596200
      6 OAC          0.4400     2.5800    -1.0750 o          1 4WF      -0.552000
      7 CAE         -4.1030    -0.5150     1.1920 ca         1 4WF      -0.097000
      8 CAF         -3.4190     0.6950     1.2120 ca         1 4WF      -0.115000
      9 CAG         -3.7310    -1.5000     0.2880 ca         1 4WF      -0.115000
     10 CAH         -2.3690     0.9160     0.3320 ca         1 4WF      -0.086000
     11 CAI         -2.6740    -1.2790    -0.5860 ca         1 4WF      -0.086000
     12 CA0          0.9900     1.5730    -0.6780 c          1 4WF       0.627000
     13 CAJ         -0.8450     0.1680    -1.5280 c3         1 4WF       0.154300
     14 NAL          0.4470     0.3100    -0.8490 n          1 4WF      -0.312000
     15 OAN          3.9810     0.7370     1.0530 o          1 4WF      -0.545000
     16 NAB          2.1910     1.6070    -0.0320 ns         1 4WF      -0.468500
     17 CAQ         -1.9840    -0.0730    -0.5710 ca         1 4WF      -0.119300
     18 HN1          2.9420    -2.0060     1.7210 hn         1 4WF       0.427000
     19 HN2          3.7260    -2.1650     0.2970 hn         1 4WF       0.427000
     20 HAB          2.5870     2.5300     0.0950 hn         1 4WF       0.346500
     21 HAF         -3.7090     1.4710     1.9080 ha         1 4WF       0.115500
     22 HAG         -4.2600    -2.4440     0.2660 ha         1 4WF       0.115500
     23 HAH         -1.8550     1.8690     0.3440 ha         1 4WF       0.120000
     24 HAI         -2.3860    -2.0540    -1.2860 ha         1 4WF       0.120000
     25 HAJ1        -1.0060     1.0840    -2.0910 h1         1 4WF       0.079700
     26 HAJ2        -0.7700    -0.6390    -2.2540 h1         1 4WF       0.079700
     27 HO           1.1040    -2.6060    -0.1780 ho         1 4WF       0.530000
     28 HAE         -4.9230    -0.6850     1.8770 ha         1 4WF       0.114000
@<TRIPOS>BOND
     1     1     3 1   
     2     1     4 2   
     3     1    14 1   
     4     2     4 1   
     5     2    18 1   
     6     2    19 1   
     7     3    27 1   
     8     4     5 1   
     9     5    15 2   
    10     5    16 1   
    11     6    12 2   
    12     7     8 ar  
    13     7     9 ar  
    14     7    28 1   
    15     8    10 ar  
    16     8    21 1   
    17     9    11 ar  
    18     9    22 1   
    19    10    17 ar  
    20    10    23 1   
    21    11    17 ar  
    22    11    24 1   
    23    12    14 1   
    24    12    16 1   
    25    13    14 1   
    26    13    17 1   
    27    13    25 1   
    28    13    26 1   
    29    16    20 1   
@<TRIPOS>SUBSTRUCTURE
     1 4WF         1 TEMP              0 ****  ****    0 ROOT
