@<TRIPOS>MOLECULE
4WF
   28    29     1     0     0
SMALL
No Charge or Current Charge


@<TRIPOS>ATOM
      1 C            1.2020    -0.8790    -0.4410 cc         1 4WF       0.344700
      2 N            3.2170    -1.9230     0.5810 nv         1 4WF      -0.900000
      3 O            0.6680    -2.0540    -0.7960 oh         1 4WF      -0.518100
      4 CA           2.3980    -0.8240     0.2430 cd         1 4WF      -0.282200
      5 CB           2.9070     0.5190     0.6790 c          1 4WF       0.596200
      6 OAC          0.3670     2.5700    -0.6330 o          1 4WF      -0.552000
      7 CAE         -4.2630    -0.4070     1.0970 ca         1 4WF      -0.097000
      8 CAF         -3.7350     0.8820     0.9130 ca         1 4WF      -0.115000
      9 CAG         -3.6790    -1.5020     0.4400 ca         1 4WF      -0.115000
     10 CAH         -2.6230     1.0750     0.0750 ca         1 4WF      -0.086000
     11 CAI         -2.5670    -1.3100    -0.3990 ca         1 4WF      -0.086000
     12 CA0          0.9450     1.5270    -0.3770 c          1 4WF       0.627000
     13 CAJ         -0.8220     0.1890    -1.4960 c3         1 4WF       0.154300
     14 NAL          0.4710     0.2610    -0.7620 n          1 4WF      -0.312000
     15 OAN          3.9430     0.7000     1.3010 o          1 4WF      -0.545000
     16 NAB          2.1130     1.5540     0.3130 ns         1 4WF      -0.468500
     17 CAQ         -2.0300    -0.0200    -0.5850 ca         1 4WF      -0.119300
     18 HN1          4.0690    -1.7440     1.1210 hn         1 4WF       0.427000
     19 HN2          3.2710    -2.7600    -0.0050 hn         1 4WF       0.427000
     20 HAB          2.4350     2.4680     0.5860 hn         1 4WF       0.346500
     21 HAF         -4.1870     1.7320     1.4200 ha         1 4WF       0.115500
     22 HAG         -4.0870    -2.5010     0.5800 ha         1 4WF       0.115500
     23 HAH         -2.2260     2.0780    -0.0620 ha         1 4WF       0.120000
     24 HAI         -2.1240    -2.1660    -0.9040 ha         1 4WF       0.120000
     25 HAJ1        -0.9710     1.1070    -2.0790 h1         1 4WF       0.079700
     26 HAJ2        -0.7780    -0.6210    -2.2350 h1         1 4WF       0.079700
     27 HO           1.2210    -2.7060    -0.3190 ho         1 4WF       0.530000
     28 HAE         -5.1230    -0.5560     1.7460 ha         1 4WF       0.114000
@<TRIPOS>BOND
     1     1     3 1   
     2     1     4 2   
     3     1    14 1   
     4     2     4 1   
     5     2    18 1   
     6     2    19 1   
     7     3    27 1   
     8     4     5 1   
     9     5    15 2   
    10     5    16 1   
    11     6    12 2   
    12     7     8 ar  
    13     7     9 ar  
    14     7    28 1   
    15     8    10 ar  
    16     8    21 1   
    17     9    11 ar  
    18     9    22 1   
    19    10    17 ar  
    20    10    23 1   
    21    11    17 ar  
    22    11    24 1   
    23    12    14 1   
    24    12    16 1   
    25    13    14 1   
    26    13    17 1   
    27    13    25 1   
    28    13    26 1   
    29    16    20 1   
@<TRIPOS>SUBSTRUCTURE
     1 4WF         1 TEMP              0 ****  ****    0 ROOT
