@<TRIPOS>MOLECULE
4WG
   65    69     1     0     0
SMALL
abcg2


@<TRIPOS>ATOM
      1 C1           2.9610     3.5920    -0.1540 c3         1 4WG       0.171600
      2 C2           2.4940     1.2450     0.0010 ca         1 4WG       0.122100
      3 C3           3.8280     0.8940    -0.0600 ca         1 4WG      -0.204000
      4 C4           4.2320    -0.4500     0.0020 ca         1 4WG       0.295000
      5 C5           3.2440    -1.4160     0.1430 ca         1 4WG      -0.176000
      6 C6           1.8980    -1.0630     0.2260 ca         1 4WG      -0.084000
      7 C7           1.4920     0.2590     0.1520 ca         1 4WG       0.260000
      8 C8          -0.9960     0.0610     0.3670 ca         1 4WG       0.406900
      9 C11         -3.2440     0.2990     0.6210 ca         1 4WG       0.388900
     10 C12         -5.3550     0.8250    -0.3040 ca         1 4WG       0.315000
     11 C15         -7.2530     0.2720    -2.2950 ca         1 4WG      -0.136000
     12 C16         -6.8870    -0.6980    -1.3820 ca         1 4WG      -0.043000
     13 C17         -5.9470    -0.4430    -0.3830 ca         1 4WG      -0.160600
     14 C18         -5.7800    -1.5100     0.6440 c          1 4WG       0.589600
     15 C21          5.9890    -2.1030     0.3030 c6         1 4WG       0.197800
     16 C23          8.2880    -1.6710    -0.6020 c6         1 4WG       0.172300
     17 C24          7.8330    -0.2680    -0.9540 c6         1 4WG      -0.099400
     18 O1          -6.7380    -2.2000     0.9590 o          1 4WG      -0.554000
     19 N4          -4.5680    -1.6940     1.2200 n          1 4WG      -0.291000
     20 C10         -3.3810    -1.0890     0.7700 ca         1 4WG      -0.120400
     21 C9          -2.2180    -1.8160     0.6140 ca         1 4WG       0.137900
     22 N1          -1.0290    -1.2660     0.4020 nb         1 4WG      -0.240000
     23 C14         -6.6970     1.5390    -2.1870 ca         1 4WG      -0.070000
     24 C13         -5.7580     1.8110    -1.2070 ca         1 4WG      -0.159000
     25 N3          -4.3640     1.1170     0.6570 na         1 4WG      -0.783100
     26 C20         -4.1380     2.5110     1.0030 c3         1 4WG       0.201100
     27 N2          -2.0700     0.8580     0.4440 nb         1 4WG      -0.293000
     28 N            0.1780     0.7220     0.2250 nu         1 4WG      -0.912900
     29 O            2.0400     2.5140    -0.0530 os         1 4WG      -0.372100
     30 C            2.1670     4.8760    -0.2100 c3         1 4WG      -0.097100
     31 N5           5.6000    -0.7500    -0.0420 nh         1 4WG      -0.783400
     32 C25          6.3330    -0.2360    -1.1940 c6         1 4WG       0.197800
     33 O2           9.6760    -1.6390    -0.3430 oh         1 4WG      -0.657000
     34 C22          7.4820    -2.1770     0.5860 c6         1 4WG      -0.099400
     35 H1           3.6330     3.5940     0.7100 h1         1 4WG       0.036200
     36 H2           3.5750     3.4820    -1.0540 h1         1 4WG       0.036200
     37 H3           4.5830     1.6650    -0.1290 ha         1 4WG       0.123000
     38 H4           3.4900    -2.4670     0.1840 ha         1 4WG       0.116000
     39 H5           1.1600    -1.8400     0.3330 ha         1 4WG       0.151000
     40 H6          -7.9760     0.0510    -3.0680 ha         1 4WG       0.121000
     41 H7          -7.3460    -1.6770    -1.4310 ha         1 4WG       0.134000
     42 H8          -5.3180    -2.6240     2.9430 h1         1 4WG       0.047033
     43 H9          -4.4310    -3.7110     1.8690 h1         1 4WG       0.047033
     44 H10         -3.5610    -2.5180     2.8460 h1         1 4WG       0.047033
     45 H11          5.4430    -2.4140     1.1940 h1         1 4WG       0.038200
     46 H12          5.7340    -2.8190    -0.4960 h1         1 4WG       0.038200
     47 H13          8.0730    -2.3260    -1.4620 h1         1 4WG       0.025700
     48 H14          8.0840     0.4150    -0.1360 hc         1 4WG       0.058200
     49 H15          8.3450     0.0890    -1.8500 hc         1 4WG       0.058200
     50 H16         -2.2370    -2.8980     0.6930 h4         1 4WG       0.028100
     51 H17         -6.9820     2.3220    -2.8770 ha         1 4WG       0.116000
     52 H18         -5.3290     2.8020    -1.1600 ha         1 4WG       0.121000
     53 H19         -3.5240     2.5550     1.8990 h1         1 4WG       0.046700
     54 H20         -3.6400     3.0890     0.2230 h1         1 4WG       0.046700
     55 H21         -5.0980     2.9720     1.2260 h1         1 4WG       0.046700
     56 H22          0.0730     1.7250     0.1960 hn         1 4WG       0.526000
     57 H23          2.8510     5.7210    -0.2790 hc         1 4WG       0.048033
     58 H24          1.5130     4.9020    -1.0810 hc         1 4WG       0.048033
     59 H25          1.5610     5.0070     0.6870 hc         1 4WG       0.048033
     60 H26          6.0280     0.7890    -1.3950 h1         1 4WG       0.038200
     61 H27          6.0880    -0.8200    -2.0950 h1         1 4WG       0.038200
     62 H28          9.9620    -2.5310    -0.1250 ho         1 4WG       0.442000
     63 H29          7.7210    -1.5770     1.4690 hc         1 4WG       0.058200
     64 H30          7.7440    -3.2140     0.8140 hc         1 4WG       0.058200
     65 C19         -4.4660    -2.6980     2.2720 c3         1 4WG       0.090300
@<TRIPOS>BOND
     1     1    29 1   
     2     1    30 1   
     3     1    35 1   
     4     1    36 1   
     5     2     3 ar  
     6     2     7 ar  
     7     2    29 1   
     8     3     4 ar  
     9     3    37 1   
    10     4     5 ar  
    11     4    31 1   
    12     5     6 ar  
    13     5    38 1   
    14     6     7 ar  
    15     6    39 1   
    16     7    28 1   
    17     8    22 ar  
    18     8    27 ar  
    19     8    28 1   
    20     9    20 ar  
    21     9    25 1   
    22     9    27 ar  
    23    10    13 ar  
    24    10    24 ar  
    25    10    25 1   
    26    11    12 ar  
    27    11    23 ar  
    28    11    40 1   
    29    12    13 ar  
    30    12    41 1   
    31    13    14 1   
    32    14    18 2   
    33    14    19 1   
    34    15    31 1   
    35    15    34 1   
    36    15    45 1   
    37    15    46 1   
    38    16    17 1   
    39    16    33 1   
    40    16    34 1   
    41    16    47 1   
    42    17    32 1   
    43    17    48 1   
    44    17    49 1   
    45    19    20 1   
    46    19    65 1   
    47    20    21 ar  
    48    21    22 ar  
    49    21    50 1   
    50    23    24 ar  
    51    23    51 1   
    52    24    52 1   
    53    25    26 1   
    54    26    53 1   
    55    26    54 1   
    56    26    55 1   
    57    28    56 1   
    58    30    57 1   
    59    30    58 1   
    60    30    59 1   
    61    31    32 1   
    62    32    60 1   
    63    32    61 1   
    64    33    62 1   
    65    34    63 1   
    66    34    64 1   
    67    42    65 1   
    68    43    65 1   
    69    44    65 1   
@<TRIPOS>SUBSTRUCTURE
     1 4WG         1 TEMP              0 ****  ****    0 ROOT
