@<TRIPOS>MOLECULE
4WG
   65    69     1     0     0
SMALL
No Charge or Current Charge


@<TRIPOS>ATOM
      1 C1           3.1300     3.6150     0.0330 c3         1 4WG       0.171600
      2 C2           2.5280     1.2130    -0.0670 ca         1 4WG       0.122100
      3 C3           3.8810     0.8210    -0.1780 ca         1 4WG      -0.204000
      4 C4           4.2270    -0.5350    -0.2890 ca         1 4WG       0.295000
      5 C5           3.2070    -1.5030    -0.2950 ca         1 4WG      -0.176000
      6 C6           1.8570    -1.1250    -0.1850 ca         1 4WG      -0.084000
      7 C7           1.5010     0.2320    -0.0550 ca         1 4WG       0.260000
      8 C8          -1.0460     0.0850     0.4150 ca         1 4WG       0.406900
      9 C11         -3.3030     0.4120     0.6500 ca         1 4WG       0.388900
     10 C12         -5.3200     0.8010    -0.4960 ca         1 4WG       0.315000
     11 C15         -7.0860     0.1840    -2.5880 ca         1 4WG      -0.136000
     12 C16         -6.9050    -0.7170    -1.5260 ca         1 4WG      -0.043000
     13 C17         -6.0050    -0.4280    -0.4710 ca         1 4WG      -0.160600
     14 C18         -5.8820    -1.4240     0.6640 c          1 4WG       0.589600
     15 C21          6.0780    -2.2000     0.1360 c6         1 4WG       0.197800
     16 C23          8.4380    -1.5770    -0.5910 c6         1 4WG       0.172300
     17 C24          7.8900    -0.2270    -1.1020 c6         1 4WG      -0.099400
     18 O1          -6.8290    -2.1730     0.8860 o          1 4WG      -0.554000
     19 N4          -4.7170    -1.5010     1.4900 n          1 4WG      -0.291000
     20 C10         -3.4330    -0.8780     1.2160 ca         1 4WG      -0.120400
     21 C9          -2.2570    -1.6610     1.2440 ca         1 4WG       0.137900
     22 N1          -1.0610    -1.1750     0.8720 nb         1 4WG      -0.240000
     23 C14         -6.3820     1.3960    -2.6100 ca         1 4WG      -0.070000
     24 C13         -5.5030     1.7010    -1.5610 ca         1 4WG      -0.159000
     25 N3          -4.4540     1.1490     0.5150 na         1 4WG      -0.783100
     26 C20         -4.7200     2.3090     1.3930 c3         1 4WG       0.201100
     27 N2          -2.1010     0.8950     0.2850 nb         1 4WG      -0.293000
     28 N            0.1620     0.6600     0.0490 nu         1 4WG      -0.912900
     29 O            2.1650     2.5500     0.0340 os         1 4WG      -0.372100
     30 C            2.3590     4.9380     0.1570 c3         1 4WG      -0.097100
     31 N5           5.5860    -0.9000    -0.4000 nh         1 4WG      -0.783400
     32 C25          6.4080    -0.3590    -1.5180 c6         1 4WG       0.197800
     33 O2           9.7930    -1.4220    -0.1550 oh         1 4WG      -0.657000
     34 C22          7.5590    -2.0970     0.5690 c6         1 4WG      -0.099400
     35 H1           3.8230     3.5160     0.8790 h1         1 4WG       0.036200
     36 H2           3.7090     3.6160    -0.9000 h1         1 4WG       0.036200
     37 H3           4.6780     1.5550    -0.1700 ha         1 4WG       0.123000
     38 H4           3.4530    -2.5550    -0.4050 ha         1 4WG       0.116000
     39 H5           1.0970    -1.8970    -0.2230 ha         1 4WG       0.151000
     40 H6          -7.7750    -0.0580    -3.3940 ha         1 4WG       0.121000
     41 H7          -7.4640    -1.6510    -1.5310 ha         1 4WG       0.134000
     42 H8          -5.6920    -2.3590     3.1760 h1         1 4WG       0.047033
     43 H9          -4.6870    -3.4940     2.2240 h1         1 4WG       0.047033
     44 H10         -3.9220    -2.2900     3.3030 h1         1 4WG       0.047033
     45 H11          5.4800    -2.5060     1.0070 h1         1 4WG       0.038200
     46 H12          5.9750    -2.9850    -0.6290 h1         1 4WG       0.038200
     47 H13          8.3960    -2.3050    -1.4150 h1         1 4WG       0.025700
     48 H14          7.9830     0.5380    -0.3190 hc         1 4WG       0.058200
     49 H15          8.4830     0.1210    -1.9580 hc         1 4WG       0.058200
     50 H16         -2.2680    -2.6980     1.5740 h4         1 4WG       0.028100
     51 H17         -6.5200     2.0950    -3.4320 ha         1 4WG       0.116000
     52 H18         -4.9580     2.6400    -1.5730 ha         1 4WG       0.121000
     53 H19         -4.3800     2.0930     2.4140 h1         1 4WG       0.046700
     54 H20         -4.1840     3.1910     1.0180 h1         1 4WG       0.046700
     55 H21         -5.7960     2.5280     1.4170 h1         1 4WG       0.046700
     56 H22          0.0800     1.6710    -0.0670 hn         1 4WG       0.526000
     57 H23          3.0560     5.7850     0.1600 hc         1 4WG       0.048033
     58 H24          1.6700     5.0640    -0.6870 hc         1 4WG       0.048033
     59 H25          1.7820     4.9630     1.0890 hc         1 4WG       0.048033
     60 H26          6.0400     0.6290    -1.8320 h1         1 4WG       0.038200
     61 H27          6.3320    -1.0240    -2.3910 h1         1 4WG       0.038200
     62 H28         10.1170    -2.3190     0.0820 ho         1 4WG       0.442000
     63 H29          7.6380    -1.4220     1.4320 hc         1 4WG       0.058200
     64 H30          7.9110    -3.0810     0.9030 hc         1 4WG       0.058200
     65 C19         -4.7560    -2.4700     2.6140 c3         1 4WG       0.090300
@<TRIPOS>BOND
     1     1    29 1   
     2     1    30 1   
     3     1    35 1   
     4     1    36 1   
     5     2     3 ar  
     6     2     7 ar  
     7     2    29 1   
     8     3     4 ar  
     9     3    37 1   
    10     4     5 ar  
    11     4    31 1   
    12     5     6 ar  
    13     5    38 1   
    14     6     7 ar  
    15     6    39 1   
    16     7    28 1   
    17     8    22 ar  
    18     8    27 ar  
    19     8    28 1   
    20     9    20 ar  
    21     9    25 1   
    22     9    27 ar  
    23    10    13 ar  
    24    10    24 ar  
    25    10    25 1   
    26    11    12 ar  
    27    11    23 ar  
    28    11    40 1   
    29    12    13 ar  
    30    12    41 1   
    31    13    14 1   
    32    14    18 2   
    33    14    19 1   
    34    15    31 1   
    35    15    34 1   
    36    15    45 1   
    37    15    46 1   
    38    16    17 1   
    39    16    33 1   
    40    16    34 1   
    41    16    47 1   
    42    17    32 1   
    43    17    48 1   
    44    17    49 1   
    45    19    20 1   
    46    19    65 1   
    47    20    21 ar  
    48    21    22 ar  
    49    21    50 1   
    50    23    24 ar  
    51    23    51 1   
    52    24    52 1   
    53    25    26 1   
    54    26    53 1   
    55    26    54 1   
    56    26    55 1   
    57    28    56 1   
    58    30    57 1   
    59    30    58 1   
    60    30    59 1   
    61    31    32 1   
    62    32    60 1   
    63    32    61 1   
    64    33    62 1   
    65    34    63 1   
    66    34    64 1   
    67    42    65 1   
    68    43    65 1   
    69    44    65 1   
@<TRIPOS>SUBSTRUCTURE
     1 4WG         1 TEMP              0 ****  ****    0 ROOT
