@<TRIPOS>MOLECULE
4WH
   57    59     1     0     0
SMALL
No Charge or Current Charge


@<TRIPOS>ATOM
      1 CAE          6.8320    -1.7540    -0.9170 c3         1 4WH      -0.083433
      2 CBC          5.5870    -2.1510    -0.0780 c3         1 4WH      -0.008700
      3 CAF          4.8500    -3.3270    -0.7740 c3         1 4WH      -0.083433
      4 CAG          6.0850    -2.6540     1.3070 c3         1 4WH      -0.083433
      5 CAV          4.6270    -0.9350     0.0250 ca         1 4WH      -0.009300
      6 CAK          4.0920    -0.3670    -1.1550 ca         1 4WH      -0.133500
      7 CAM          3.2190     0.7320    -1.1090 ca         1 4WH      -0.009000
      8 CAJ          4.2530    -0.3550     1.2630 ca         1 4WH      -0.133500
      9 CAL          3.3790     0.7440     1.3150 ca         1 4WH      -0.009000
     10 CAW          2.8580     1.2930     0.1300 ca         1 4WH      -0.273500
     11 SBD          1.7170     2.6910     0.2210 sy         1 4WH       1.019600
     12 OAH          2.2400     3.6280     1.2290 o          1 4WH      -0.529500
     13 OAI          1.4370     3.1370    -1.1530 o          1 4WH      -0.529500
     14 CBA          0.1940     1.9580     0.8940 cc         1 4WH      -0.029100
     15 CAU         -0.6960     1.1780     0.2020 cd         1 4WH      -0.032300
     16 CAD         -0.7210     0.7000    -1.2350 c3         1 4WH      -0.043800
     17 NAP         -0.1980     2.0970     2.2110 nc         1 4WH      -0.283000
     18 NAQ         -1.3180     1.4380     2.3910 nd         1 4WH      -0.168800
     19 NBB         -1.6380     0.9190     1.1740 na         1 4WH       0.235000
     20 CAZ         -2.6880     0.0520     0.8760 ca         1 4WH      -0.108200
     21 CAN         -2.6060    -1.2930     1.2760 ca         1 4WH      -0.023000
     22 CAT         -3.6490    -2.1900     0.9810 ca         1 4WH      -0.142300
     23 CAC         -3.5420    -3.6470     1.4210 c3         1 4WH      -0.027800
     24 CAX         -4.7850    -1.7330     0.2810 ca         1 4WH       0.200100
     25 OAR         -5.7910    -2.6400     0.0060 os         1 4WH      -0.333100
     26 CAA         -6.9900    -2.2790    -0.7020 c3         1 4WH       0.145900
     27 CAO         -4.8700    -0.3820    -0.1190 ca         1 4WH      -0.293000
     28 CAY         -3.8220     0.5130     0.1790 ca         1 4WH       0.210100
     29 OAS         -3.8670     1.8430    -0.1970 os         1 4WH      -0.320100
     30 CAB         -4.9720     2.4080    -0.9230 c3         1 4WH       0.146900
     31 H1           7.5450    -2.5850    -0.9780 hc         1 4WH       0.037478
     32 H2           6.5580    -1.4780    -1.9410 hc         1 4WH       0.037478
     33 H3           7.3470    -0.8980    -0.4620 hc         1 4WH       0.037478
     34 H4           5.4930    -4.2150    -0.8310 hc         1 4WH       0.037478
     35 H5           3.9450    -3.6000    -0.2180 hc         1 4WH       0.037478
     36 H6           4.5520    -3.0700    -1.7970 hc         1 4WH       0.037478
     37 H7           6.6390    -1.8690     1.8370 hc         1 4WH       0.037478
     38 H8           5.2470    -2.9770     1.9370 hc         1 4WH       0.037478
     39 H9           6.7600    -3.5120     1.1930 hc         1 4WH       0.037478
     40 H10          4.3510    -0.7770    -2.1270 ha         1 4WH       0.117000
     41 H11          2.8290     1.1390    -2.0410 ha         1 4WH       0.137000
     42 H12          4.6250    -0.7420     2.2060 ha         1 4WH       0.117000
     43 H13          3.1060     1.1640     2.2830 ha         1 4WH       0.137000
     44 H14          0.2860     0.6490    -1.6630 hc         1 4WH       0.071033
     45 H15         -1.1540    -0.3040    -1.3220 hc         1 4WH       0.071033
     46 H16         -1.3170     1.3750    -1.8600 hc         1 4WH       0.071033
     47 H17         -1.7270    -1.6410     1.8160 ha         1 4WH       0.130000
     48 H18         -4.3650    -3.9160     2.0930 hc         1 4WH       0.045033
     49 H19         -3.5800    -4.3210     0.5570 hc         1 4WH       0.045033
     50 H20         -2.6040    -3.8470     1.9520 hc         1 4WH       0.045033
     51 H21         -7.6460    -3.1520    -0.8070 h1         1 4WH       0.045367
     52 H22         -7.5440    -1.5010    -0.1610 h1         1 4WH       0.045367
     53 H23         -6.7530    -1.9100    -1.7080 h1         1 4WH       0.045367
     54 H24         -5.7420    -0.0320    -0.6560 ha         1 4WH       0.129000
     55 H25         -5.1010     1.9040    -1.8900 h1         1 4WH       0.047367
     56 H26         -5.9030     2.3170    -0.3500 h1         1 4WH       0.047367
     57 H27         -4.7950     3.4730    -1.1170 h1         1 4WH       0.047367
@<TRIPOS>BOND
     1     1     2 1   
     2     1    31 1   
     3     1    32 1   
     4     1    33 1   
     5     2     3 1   
     6     2     4 1   
     7     2     5 1   
     8     3    34 1   
     9     3    35 1   
    10     3    36 1   
    11     4    37 1   
    12     4    38 1   
    13     4    39 1   
    14     5     6 ar  
    15     5     8 ar  
    16     6     7 ar  
    17     6    40 1   
    18     7    10 ar  
    19     7    41 1   
    20     8     9 ar  
    21     8    42 1   
    22     9    10 ar  
    23     9    43 1   
    24    10    11 1   
    25    11    12 2   
    26    11    13 2   
    27    11    14 1   
    28    14    15 2   
    29    14    17 1   
    30    15    16 1   
    31    15    19 1   
    32    16    44 1   
    33    16    45 1   
    34    16    46 1   
    35    17    18 2   
    36    18    19 1   
    37    19    20 1   
    38    20    21 ar  
    39    20    28 ar  
    40    21    22 ar  
    41    21    47 1   
    42    22    23 1   
    43    22    24 ar  
    44    23    48 1   
    45    23    49 1   
    46    23    50 1   
    47    24    25 1   
    48    24    27 ar  
    49    25    26 1   
    50    26    51 1   
    51    26    52 1   
    52    26    53 1   
    53    27    28 ar  
    54    27    54 1   
    55    28    29 1   
    56    29    30 1   
    57    30    55 1   
    58    30    56 1   
    59    30    57 1   
@<TRIPOS>SUBSTRUCTURE
     1 4WH         1 TEMP              0 ****  ****    0 ROOT
