@<TRIPOS>MOLECULE
4WH
   57    59     1     0     0
SMALL
bcc


@<TRIPOS>ATOM
      1 CAE          7.1140    -1.8220    -0.5220 c3         1 4WH      -0.083433
      2 CBC          6.0430    -1.9200     0.5730 c3         1 4WH      -0.008700
      3 CAF          5.4100    -3.3180     0.5410 c3         1 4WH      -0.083433
      4 CAG          6.7240    -1.7230     1.9270 c3         1 4WH      -0.083433
      5 CAV          4.9620    -0.8790     0.3100 ca         1 4WH      -0.009300
      6 CAK          4.2530    -0.9120    -0.8950 ca         1 4WH      -0.151500
      7 CAM          3.2680     0.0140    -1.1840 ca         1 4WH      -0.027000
      8 CAJ          4.6430     0.1240     1.2230 ca         1 4WH      -0.151500
      9 CAL          3.6580     1.0630     0.9540 ca         1 4WH      -0.027000
     10 CAW          2.9770     1.0020    -0.2500 ca         1 4WH      -0.273500
     11 SBD          1.7140     2.1850    -0.5990 sy         1 4WH       1.161200
     12 OAH          1.9660     3.3750     0.2010 o          1 4WH      -0.600300
     13 OAI          1.5690     2.2970    -2.0460 o          1 4WH      -0.600300
     14 CBA          0.2540     1.4380     0.0100 cc         1 4WH       0.036200
     15 CAU         -0.7620     0.8040    -0.6690 cd         1 4WH      -0.046900
     16 CAD         -1.0190     0.5220    -2.1000 c3         1 4WH      -0.043800
     17 NAP          0.0040     1.4050     1.3350 nc         1 4WH      -0.283000
     18 NAQ         -1.0970     0.7910     1.5270 nd         1 4WH      -0.168800
     19 NBB         -1.5740     0.4190     0.3360 na         1 4WH       0.184300
     20 CAZ         -2.8110    -0.2640     0.2410 ca         1 4WH      -0.108200
     21 CAN         -2.8380    -1.6260    -0.0180 ca         1 4WH      -0.041000
     22 CAT         -4.0270    -2.3230    -0.1260 ca         1 4WH      -0.142300
     23 CAC         -4.0520    -3.7950    -0.4080 c3         1 4WH      -0.027800
     24 CAX         -5.2180    -1.5990     0.0450 ca         1 4WH       0.200100
     25 OAR         -6.3470    -2.3120    -0.0610 os         1 4WH      -0.309900
     26 CAA         -7.5950    -1.6620     0.0920 c3         1 4WH       0.122700
     27 CAO         -5.2060    -0.2290     0.3040 ca         1 4WH      -0.311000
     28 CAY         -3.9960     0.4530     0.3960 ca         1 4WH       0.210100
     29 OAS         -3.8810     1.7660     0.6180 os         1 4WH      -0.296900
     30 CAB         -5.0580     2.5380     0.7850 c3         1 4WH       0.123700
     31 H1           7.8880    -2.5710    -0.3510 hc         1 4WH       0.037478
     32 H2           6.7040    -1.9960    -1.5180 hc         1 4WH       0.037478
     33 H3           7.5900    -0.8400    -0.5230 hc         1 4WH       0.037478
     34 H4           6.1720    -4.0770     0.7300 hc         1 4WH       0.037478
     35 H5           4.6370    -3.4230     1.3040 hc         1 4WH       0.037478
     36 H6           4.9590    -3.5420    -0.4260 hc         1 4WH       0.037478
     37 H7           7.2200    -0.7530     1.9980 hc         1 4WH       0.037478
     38 H8           6.0230    -1.8100     2.7590 hc         1 4WH       0.037478
     39 H9           7.4890    -2.4880     2.0630 hc         1 4WH       0.037478
     40 H10          4.4700    -1.6720    -1.6350 ha         1 4WH       0.135000
     41 H11          2.7450    -0.0350    -2.1300 ha         1 4WH       0.155000
     42 H12          5.1640     0.1930     2.1670 ha         1 4WH       0.135000
     43 H13          3.4400     1.8320     1.6820 ha         1 4WH       0.155000
     44 H14         -0.4200    -0.3260    -2.4360 hc         1 4WH       0.071033
     45 H15         -2.0660     0.2770    -2.2690 hc         1 4WH       0.071033
     46 H16         -0.7590     1.3790    -2.7130 hc         1 4WH       0.071033
     47 H17         -1.9000    -2.1540    -0.1390 ha         1 4WH       0.148000
     48 H18         -4.4970    -4.3590     0.4130 hc         1 4WH       0.045033
     49 H19         -4.6270    -4.0280    -1.3060 hc         1 4WH       0.045033
     50 H20         -3.0410    -4.1710    -0.5570 hc         1 4WH       0.045033
     51 H21         -8.3560    -2.4270    -0.0340 h1         1 4WH       0.045367
     52 H22         -7.7030    -1.2170     1.0850 h1         1 4WH       0.045367
     53 H23         -7.7460    -0.8880    -0.6640 h1         1 4WH       0.045367
     54 H24         -6.1350     0.3090     0.4300 ha         1 4WH       0.147000
     55 H25         -5.6990     2.4950    -0.0990 h1         1 4WH       0.047367
     56 H26         -5.6300     2.2170     1.6580 h1         1 4WH       0.047367
     57 H27         -4.7310     3.5630     0.9340 h1         1 4WH       0.047367
@<TRIPOS>BOND
     1     1     2 1   
     2     1    31 1   
     3     1    32 1   
     4     1    33 1   
     5     2     3 1   
     6     2     4 1   
     7     2     5 1   
     8     3    34 1   
     9     3    35 1   
    10     3    36 1   
    11     4    37 1   
    12     4    38 1   
    13     4    39 1   
    14     5     6 ar  
    15     5     8 ar  
    16     6     7 ar  
    17     6    40 1   
    18     7    10 ar  
    19     7    41 1   
    20     8     9 ar  
    21     8    42 1   
    22     9    10 ar  
    23     9    43 1   
    24    10    11 1   
    25    11    12 2   
    26    11    13 2   
    27    11    14 1   
    28    14    15 2   
    29    14    17 1   
    30    15    16 1   
    31    15    19 1   
    32    16    44 1   
    33    16    45 1   
    34    16    46 1   
    35    17    18 2   
    36    18    19 1   
    37    19    20 1   
    38    20    21 ar  
    39    20    28 ar  
    40    21    22 ar  
    41    21    47 1   
    42    22    23 1   
    43    22    24 ar  
    44    23    48 1   
    45    23    49 1   
    46    23    50 1   
    47    24    25 1   
    48    24    27 ar  
    49    25    26 1   
    50    26    51 1   
    51    26    52 1   
    52    26    53 1   
    53    27    28 ar  
    54    27    54 1   
    55    28    29 1   
    56    29    30 1   
    57    30    55 1   
    58    30    56 1   
    59    30    57 1   
@<TRIPOS>SUBSTRUCTURE
     1 4WH         1 TEMP              0 ****  ****    0 ROOT
