@<TRIPOS>MOLECULE
4WI
   69    71     1     0     0
SMALL
No Charge or Current Charge


@<TRIPOS>ATOM
      1 C8           7.3040     1.1640    17.3990 c          1 4WI       0.565000
      2 C3           7.4330    -3.3710    19.8160 c2         1 4WI       0.405200
      3 C1           8.8920    -0.6310    21.7430 c          1 4WI       0.595100
      4 C13         10.3680     2.1950    22.1840 c          1 4WI       0.597100
      5 C21         11.7290     5.5960    22.5630 c          1 4WI       0.549100
      6 C6           6.2190     1.0910    19.5450 c5         1 4WI      -0.095400
      7 C7           6.2760     2.5570    19.0350 c5         1 4WI       0.100000
      8 C10         11.4230     0.7900    24.0130 c5         1 4WI       0.133000
      9 C5           7.3940     0.4510    18.7540 c5         1 4WI      -0.156700
     10 C9          10.3940    -0.3190    22.0250 c5         1 4WI       0.058700
     11 C11         11.6820    -0.7190    24.1030 cx         1 4WI      -0.124700
     12 C12         11.0600    -1.3910    22.9080 cx         1 4WI      -0.127700
     13 C18         12.5750    -1.3390    23.0370 cx         1 4WI      -0.077000
     14 C19         13.4580    -0.4910    22.1040 c3         1 4WI      -0.065600
     15 C20         13.3050    -2.6370    23.3830 c3         1 4WI      -0.065600
     16 C16          9.0020     5.1760    24.4650 c3         1 4WI      -0.091100
     17 C17          8.5950     2.7250    24.7760 c3         1 4WI      -0.091100
     18 C23          7.8300     3.8610    22.6580 c3         1 4WI      -0.091100
     19 C4           7.3690    -1.1030    18.6560 c3         1 4WI      -0.069400
     20 C2           7.5280    -1.8600    20.0000 c3         1 4WI       0.047400
     21 C14         10.3570     3.5000    23.0520 c3         1 4WI       0.042700
     22 C22         12.0240     6.6690    21.4770 c3         1 4WI       0.221000
     23 C15          8.9610     3.8080    23.7250 c3         1 4WI      -0.047000
     24 N2           6.6390     2.3360    17.6370 ns         1 4WI      -0.517900
     25 N3          10.5740     0.9440    22.8050 n          1 4WI      -0.394800
     26 N1           8.7950    -1.4850    20.6600 ns         1 4WI      -0.494900
     27 N4          10.8140     4.6240    22.1960 ns         1 4WI      -0.476900
     28 O1           7.5270     0.7390    16.2770 o          1 4WI      -0.555000
     29 O2           7.9180    -0.2250    22.3650 o          1 4WI      -0.598100
     30 O3          10.1520     2.2460    20.9760 o          1 4WI      -0.617100
     31 O4          12.2600     5.5910    23.6690 o          1 4WI      -0.549100
     32 F1          12.5340     6.1060    20.3550 f          1 4WI      -0.101000
     33 F2          12.9160     7.5950    21.9030 f          1 4WI      -0.101000
     34 F3          10.8970     7.3300    21.1210 f          1 4WI      -0.101000
     35 H33          8.1340    -3.8290    19.1240 h4         1 4WI      -0.039200
     36 H5           5.2610     0.6260    19.2820 hc         1 4WI       0.064700
     37 H6           6.3310     1.0230    20.6320 hc         1 4WI       0.064700
     38 H7           7.0480     3.1360    19.5600 h1         1 4WI       0.043200
     39 H8           5.3130     3.0720    19.1510 h1         1 4WI       0.043200
     40 H11         12.3530     1.3690    23.9290 h1         1 4WI       0.062700
     41 H12         10.8980     1.1500    24.9060 h1         1 4WI       0.062700
     42 H4           8.3320     0.7810    19.2140 hc         1 4WI       0.091700
     43 H10         10.8920    -0.2370    21.0500 h1         1 4WI       0.085700
     44 H13         11.6240    -1.2130    25.0710 hc         1 4WI       0.104700
     45 H14         10.5700    -2.3530    23.0460 hc         1 4WI       0.106700
     46 H23         14.4170    -0.2620    22.5830 hc         1 4WI       0.042033
     47 H24         13.6740    -1.0360    21.1770 hc         1 4WI       0.042033
     48 H25         13.0110     0.4650    21.8150 hc         1 4WI       0.042033
     49 H26         12.7070    -3.2710    24.0490 hc         1 4WI       0.042033
     50 H27         13.5210    -3.2190    22.4790 hc         1 4WI       0.042033
     51 H28         14.2550    -2.4310    23.8890 hc         1 4WI       0.042033
     52 H17          9.8190     5.2030    25.1950 hc         1 4WI       0.042367
     53 H19          9.1390     6.0110    23.7670 hc         1 4WI       0.042367
     54 H18          8.0650     5.3590    25.0060 hc         1 4WI       0.042367
     55 H20          9.3540     2.6710    25.5650 hc         1 4WI       0.042367
     56 H21          7.6360     2.9570    25.2570 hc         1 4WI       0.042367
     57 H22          8.4950     1.7350    24.3190 hc         1 4WI       0.042367
     58 H29          6.8710     4.1280    23.1190 hc         1 4WI       0.042367
     59 H30          8.0460     4.6080    21.8850 hc         1 4WI       0.042367
     60 H31          7.6970     2.8900    22.1660 hc         1 4WI       0.042367
     61 H2           6.4280    -1.4210    18.1870 hc         1 4WI       0.062700
     62 H3           8.1680    -1.4330    17.9800 hc         1 4WI       0.062700
     63 H32          6.6930    -1.5620    20.6490 h1         1 4WI       0.106700
     64 H15         11.0970     3.3650    23.8490 h1         1 4WI       0.090700
     65 H36          6.7130    -5.0890    20.1530 hn         1 4WI       0.380400
     66 H9           6.3880     2.9270    16.8530 hn         1 4WI       0.326500
     67 H1           9.6660    -1.7900    20.2400 hn         1 4WI       0.319500
     68 H16         10.4530     4.6710    21.2480 hn         1 4WI       0.351500
     69 N5           6.5810    -4.1070    20.4370 n2         1 4WI      -0.728100
@<TRIPOS>BOND
     1     1     9 1   
     2     1    24 1   
     3     1    28 2   
     4     2    20 1   
     5     2    35 1   
     6     2    69 2   
     7     3    10 1   
     8     3    26 1   
     9     3    29 2   
    10     4    21 1   
    11     4    25 1   
    12     4    30 2   
    13     5    22 1   
    14     5    27 1   
    15     5    31 2   
    16     6     7 1   
    17     6     9 1   
    18     6    36 1   
    19     6    37 1   
    20     7    24 1   
    21     7    38 1   
    22     7    39 1   
    23     8    11 1   
    24     8    25 1   
    25     8    40 1   
    26     8    41 1   
    27     9    19 1   
    28     9    42 1   
    29    10    12 1   
    30    10    25 1   
    31    10    43 1   
    32    11    12 1   
    33    11    13 1   
    34    11    44 1   
    35    12    13 1   
    36    12    45 1   
    37    13    14 1   
    38    13    15 1   
    39    14    46 1   
    40    14    47 1   
    41    14    48 1   
    42    15    49 1   
    43    15    50 1   
    44    15    51 1   
    45    16    23 1   
    46    16    52 1   
    47    16    53 1   
    48    16    54 1   
    49    17    23 1   
    50    17    55 1   
    51    17    56 1   
    52    17    57 1   
    53    18    23 1   
    54    18    58 1   
    55    18    59 1   
    56    18    60 1   
    57    19    20 1   
    58    19    61 1   
    59    19    62 1   
    60    20    26 1   
    61    20    63 1   
    62    21    23 1   
    63    21    27 1   
    64    21    64 1   
    65    22    32 1   
    66    22    33 1   
    67    22    34 1   
    68    24    66 1   
    69    26    67 1   
    70    27    68 1   
    71    65    69 1   
@<TRIPOS>SUBSTRUCTURE
     1 4WI         1 TEMP              0 ****  ****    0 ROOT
