@<TRIPOS>MOLECULE
4WI
   69    71     1     0     0
SMALL
abcg2


@<TRIPOS>ATOM
      1 C8           6.4430     1.5820    18.3640 c          1 4WI       0.565000
      2 C3           7.8920    -3.1340    19.3390 c2         1 4WI       0.405200
      3 C1           9.3010    -0.8610    21.6180 c          1 4WI       0.595100
      4 C13         10.4140     1.9930    21.8830 c          1 4WI       0.597100
      5 C21         12.1880     4.8770    22.6980 c          1 4WI       0.549100
      6 C6           5.8000     0.6650    20.4780 c5         1 4WI      -0.095400
      7 C7           5.2240     2.0730    20.3150 c5         1 4WI       0.100000
      8 C10         11.0140     0.7800    24.0030 c5         1 4WI       0.133000
      9 C5           6.9050     0.5930    19.4250 c5         1 4WI      -0.156700
     10 C9          10.7350    -0.4040    21.8890 c5         1 4WI       0.058700
     11 C11         11.5450    -0.6190    24.1780 cx         1 4WI      -0.124700
     12 C12         11.3800    -1.3490    22.8780 cx         1 4WI      -0.127700
     13 C18         12.7570    -1.0420    23.3970 cx         1 4WI      -0.077000
     14 C19         13.6740    -0.0420    22.7320 c3         1 4WI      -0.065600
     15 C20         13.5040    -2.2310    23.9580 c3         1 4WI      -0.065600
     16 C16          8.8620     5.0530    23.6810 c3         1 4WI      -0.091100
     17 C17          7.9480     2.7700    23.2860 c3         1 4WI      -0.091100
     18 C23          8.3190     4.3240    21.3670 c3         1 4WI      -0.091100
     19 C4           7.1830    -0.7900    18.8610 c3         1 4WI      -0.069400
     20 C2           7.7640    -1.7460    19.9070 c3         1 4WI       0.047400
     21 C14         10.3110     3.3110    22.6480 c3         1 4WI       0.042700
     22 C22         13.0040     5.8870    21.8710 c3         1 4WI       0.221000
     23 C15          8.8580     3.8610    22.7210 c3         1 4WI      -0.047000
     24 N2           5.5010     2.3610    18.9240 ns         1 4WI      -0.517900
     25 N3          10.7090     0.8810    22.5740 n          1 4WI      -0.394800
     26 N1           9.0600    -1.2900    20.3700 ns         1 4WI      -0.494900
     27 N4          11.2260     4.2450    22.0230 ns         1 4WI      -0.476900
     28 O1           6.8620     1.6640    17.2220 o          1 4WI      -0.555000
     29 O2           8.4710    -0.8480    22.5120 o          1 4WI      -0.598100
     30 O3          10.2360     1.9720    20.6710 o          1 4WI      -0.617100
     31 O4          12.4410     4.7630    23.8790 o          1 4WI      -0.549100
     32 F1          13.0760     5.5710    20.5760 f          1 4WI      -0.101000
     33 F2          14.2410     5.9710    22.3410 f          1 4WI      -0.101000
     34 F3          12.4440     7.0960    21.9620 f          1 4WI      -0.101000
     35 H33          8.6790    -3.2620    18.5890 h4         1 4WI      -0.039200
     36 H5           5.0290    -0.0770    20.2550 hc         1 4WI       0.064700
     37 H6           6.1560     0.4800    21.4890 hc         1 4WI       0.064700
     38 H7           5.7200     2.7920    20.9740 h1         1 4WI       0.043200
     39 H8           4.1550     2.1150    20.5190 h1         1 4WI       0.043200
     40 H11         11.7460     1.5360    24.2930 h1         1 4WI       0.062700
     41 H12         10.1200     0.9210    24.6120 h1         1 4WI       0.062700
     42 H4           7.8330     1.0090    19.8380 hc         1 4WI       0.091700
     43 H10         11.3080    -0.3240    20.9610 h1         1 4WI       0.085700
     44 H13         11.3340    -1.1030    25.1250 hc         1 4WI       0.104700
     45 H14         11.0630    -2.3850    22.8480 hc         1 4WI       0.106700
     46 H23         14.4060     0.3310    23.4510 hc         1 4WI       0.042033
     47 H24         14.2270    -0.5200    21.9220 hc         1 4WI       0.042033
     48 H25         13.1640     0.8230    22.3130 hc         1 4WI       0.042033
     49 H26         12.8340    -2.9460    24.4380 hc         1 4WI       0.042033
     50 H27         14.0420    -2.7580    23.1680 hc         1 4WI       0.042033
     51 H28         14.2360    -1.9110    24.7030 hc         1 4WI       0.042033
     52 H17          9.2220     4.7670    24.6720 hc         1 4WI       0.042367
     53 H19          9.4850     5.8710    23.3160 hc         1 4WI       0.042367
     54 H18          7.8490     5.4420    23.7950 hc         1 4WI       0.042367
     55 H20          8.3030     2.4050    24.2530 hc         1 4WI       0.042367
     56 H21          6.9430     3.1670    23.4360 hc         1 4WI       0.042367
     57 H22          7.8600     1.9160    22.6130 hc         1 4WI       0.042367
     58 H29          7.3320     4.7690    21.5090 hc         1 4WI       0.042367
     59 H30          8.9480     5.0920    20.9140 hc         1 4WI       0.042367
     60 H31          8.2080     3.5080    20.6550 hc         1 4WI       0.042367
     61 H2           6.2530    -1.2210    18.4770 hc         1 4WI       0.062700
     62 H3           7.8720    -0.7190    18.0140 hc         1 4WI       0.062700
     63 H32          7.1020    -1.7990    20.7700 h1         1 4WI       0.106700
     64 H15         10.6470     3.1850    23.6750 h1         1 4WI       0.090700
     65 H36          7.3250    -4.9190    19.2050 hn         1 4WI       0.380400
     66 H9           5.1200     3.1630    18.4470 hn         1 4WI       0.326500
     67 H1           9.7940    -1.1970    19.6830 hn         1 4WI       0.319500
     68 H16         11.1330     4.3850    21.0280 hn         1 4WI       0.351500
     69 N5           7.1140    -4.0580    19.7030 n2         1 4WI      -0.728100
@<TRIPOS>BOND
     1     1     9 1   
     2     1    24 1   
     3     1    28 2   
     4     2    20 1   
     5     2    35 1   
     6     2    69 2   
     7     3    10 1   
     8     3    26 1   
     9     3    29 2   
    10     4    21 1   
    11     4    25 1   
    12     4    30 2   
    13     5    22 1   
    14     5    27 1   
    15     5    31 2   
    16     6     7 1   
    17     6     9 1   
    18     6    36 1   
    19     6    37 1   
    20     7    24 1   
    21     7    38 1   
    22     7    39 1   
    23     8    11 1   
    24     8    25 1   
    25     8    40 1   
    26     8    41 1   
    27     9    19 1   
    28     9    42 1   
    29    10    12 1   
    30    10    25 1   
    31    10    43 1   
    32    11    12 1   
    33    11    13 1   
    34    11    44 1   
    35    12    13 1   
    36    12    45 1   
    37    13    14 1   
    38    13    15 1   
    39    14    46 1   
    40    14    47 1   
    41    14    48 1   
    42    15    49 1   
    43    15    50 1   
    44    15    51 1   
    45    16    23 1   
    46    16    52 1   
    47    16    53 1   
    48    16    54 1   
    49    17    23 1   
    50    17    55 1   
    51    17    56 1   
    52    17    57 1   
    53    18    23 1   
    54    18    58 1   
    55    18    59 1   
    56    18    60 1   
    57    19    20 1   
    58    19    61 1   
    59    19    62 1   
    60    20    26 1   
    61    20    63 1   
    62    21    23 1   
    63    21    27 1   
    64    21    64 1   
    65    22    32 1   
    66    22    33 1   
    67    22    34 1   
    68    24    66 1   
    69    26    67 1   
    70    27    68 1   
    71    65    69 1   
@<TRIPOS>SUBSTRUCTURE
     1 4WI         1 TEMP              0 ****  ****    0 ROOT
