@<TRIPOS>MOLECULE
4WJ
   25    26     1     0     0
SMALL
No Charge or Current Charge


@<TRIPOS>ATOM
      1 C2          -1.5800    -0.4300    -0.0310 cc         1 4WJ      -0.131900
      2 C3          -1.3060    -1.6290     0.6480 cc         1 4WJ       0.297900
      3 N4          -0.0210    -1.8430     0.8600 nd         1 4WJ      -0.515800
      4 C6          -0.3770     0.1610    -0.2670 cd         1 4WJ      -0.154000
      5 C7           2.0290    -0.5210     0.2840 c6         1 4WJ       0.096300
      6 C8           2.5820    -0.4750    -1.1690 c6         1 4WJ      -0.125400
      7 C11          3.9470     0.9400     1.1500 c6         1 4WJ       0.101100
      8 C12          2.4170     0.7590     1.0780 c6         1 4WJ      -0.125400
      9 Br1         -3.2780     0.2300    -0.5180 br         1 4WJ      -0.007100
     10 N5           0.5600    -0.7220     0.2870 na         1 4WJ       0.111800
     11 C9           4.1180    -0.3440    -1.1880 c6         1 4WJ       0.101100
     12 N10          4.4840     0.8820    -0.3070 ny         1 4WJ      -0.823000
     13 H13         -2.0230    -2.3600     0.9970 h4         1 4WJ       0.070100
     14 H14         -0.1170     1.0910    -0.7590 h4         1 4WJ       0.160000
     15 H15          2.4800    -1.3860     0.7920 h1         1 4WJ       0.107700
     16 H17          2.2890    -1.3860    -1.7090 hc         1 4WJ       0.099200
     17 H16          2.1380     0.3670    -1.7170 hc         1 4WJ       0.099200
     18 H23          4.2390     1.9000     1.5930 hx         1 4WJ       0.107200
     19 H22          4.4260     0.1260     1.7080 hx         1 4WJ       0.107200
     20 H25          1.9670     1.6460     0.6110 hc         1 4WJ       0.099200
     21 H24          2.0100     0.7050     2.0970 hc         1 4WJ       0.099200
     22 H19          4.6060    -1.2220    -0.7460 hx         1 4WJ       0.107200
     23 H18          4.5170    -0.1810    -2.1970 hx         1 4WJ       0.107200
     24 H20          4.1880     1.7500    -0.8050 hn         1 4WJ       0.506000
     25 H21          5.5250     0.9780    -0.2830 hn         1 4WJ       0.506000
@<TRIPOS>BOND
     1     1     2 1   
     2     1     4 2   
     3     1     9 1   
     4     2     3 2   
     5     2    13 1   
     6     3    10 1   
     7     4    10 1   
     8     4    14 1   
     9     5     6 1   
    10     5     8 1   
    11     5    10 1   
    12     5    15 1   
    13     6    11 1   
    14     6    16 1   
    15     6    17 1   
    16     7     8 1   
    17     7    12 1   
    18     7    18 1   
    19     7    19 1   
    20     8    20 1   
    21     8    21 1   
    22    11    12 1   
    23    11    22 1   
    24    11    23 1   
    25    12    24 1   
    26    12    25 1   
@<TRIPOS>SUBSTRUCTURE
     1 4WJ         1 TEMP              0 ****  ****    0 ROOT
