@<TRIPOS>MOLECULE
4WJ
   25    26     1     0     0
SMALL
abcg2


@<TRIPOS>ATOM
      1 C2          -1.5660    -0.4260    -0.0250 cc         1 4WJ      -0.131900
      2 C3          -1.2810    -1.6260     0.6420 cc         1 4WJ       0.297900
      3 N4           0.0210    -1.7590     0.8040 nd         1 4WJ      -0.515800
      4 C6          -0.3460     0.1630    -0.2570 cd         1 4WJ      -0.154000
      5 C7           2.0090    -0.5090     0.2730 c6         1 4WJ       0.096300
      6 C8           2.5830    -0.4690    -1.1410 c6         1 4WJ      -0.125400
      7 C11          3.9240     0.8910     1.0670 c6         1 4WJ       0.101100
      8 C12          2.4170     0.7400     1.0500 c6         1 4WJ      -0.125400
      9 BR1         -3.2360     0.2370    -0.4990 br         1 4WJ      -0.007100
     10 N5           0.5690    -0.6770     0.2600 na         1 4WJ       0.111800
     11 C9           4.0890    -0.3060    -1.1020 c6         1 4WJ       0.101100
     12 N10          4.4570     0.9100    -0.3240 ny         1 4WJ      -0.823000
     13 H13         -1.9680    -2.3770     1.0000 h4         1 4WJ       0.070100
     14 H14         -0.0900     1.0930    -0.7370 h4         1 4WJ       0.160000
     15 H15          2.3940    -1.3920     0.7870 h1         1 4WJ       0.107700
     16 H17          2.3540    -1.3950    -1.6690 hc         1 4WJ       0.099200
     17 H16          2.1390     0.3490    -1.7150 hc         1 4WJ       0.099200
     18 H23          4.2290     1.8180     1.5460 hx         1 4WJ       0.107200
     19 H22          4.4090     0.0590     1.5760 hx         1 4WJ       0.107200
     20 H25          1.9610     1.6320     0.6110 hc         1 4WJ       0.099200
     21 H24          2.0710     0.6760     2.0830 hc         1 4WJ       0.099200
     22 H19          4.5740    -1.1490    -0.6110 hx         1 4WJ       0.107200
     23 H18          4.5080    -0.1960    -2.0990 hx         1 4WJ       0.107200
     24 H20          4.1250     1.7460    -0.8100 hn         1 4WJ       0.506000
     25 H21          5.4730     1.0020    -0.2990 hn         1 4WJ       0.506000
@<TRIPOS>BOND
     1     1     2 1   
     2     1     4 2   
     3     1     9 1   
     4     2     3 2   
     5     2    13 1   
     6     3    10 1   
     7     4    10 1   
     8     4    14 1   
     9     5     6 1   
    10     5     8 1   
    11     5    10 1   
    12     5    15 1   
    13     6    11 1   
    14     6    16 1   
    15     6    17 1   
    16     7     8 1   
    17     7    12 1   
    18     7    18 1   
    19     7    19 1   
    20     8    20 1   
    21     8    21 1   
    22    11    12 1   
    23    11    22 1   
    24    11    23 1   
    25    12    24 1   
    26    12    25 1   
@<TRIPOS>SUBSTRUCTURE
     1 4WJ         1 TEMP              0 ****  ****    0 ROOT
