@<TRIPOS>MOLECULE
4WK
   31    30     1     0     0
SMALL
bcc


@<TRIPOS>ATOM
      1 C1          -0.7550     2.6320     0.0950 c3         1 4WK      -0.093100
      2 C2          -1.6700     1.4510    -0.2040 c3         1 4WK      -0.068700
      3 C3          -1.9790     1.3680    -1.6950 c3         1 4WK      -0.093100
      4 C6           1.3750    -0.0040     0.3540 c          1 4WK       0.653100
      5 C8           2.5610    -0.5640    -0.4270 c3         1 4WK       0.042500
      6 C11         -2.0240    -1.0390     0.1120 c          1 4WK       0.665100
      7 C4          -1.0770     0.1370     0.3490 c3         1 4WK       0.016700
      8 N5           0.1980    -0.1830    -0.2460 ns         1 4WK      -0.511900
      9 O7           1.5480     0.5170     1.4440 o          1 4WK      -0.594100
     10 C9           2.7870    -2.0300    -0.0990 c3         1 4WK      -0.126100
     11 N10          3.7580     0.2300    -0.0540 nz         1 4WK      -0.825600
     12 N13         -3.1420    -1.0100     0.8450 nt         1 4WK      -0.655000
     13 H14         -0.5250     2.7090     1.1580 hc         1 4WK       0.043533
     14 H16          0.1860     2.5610    -0.4520 hc         1 4WK       0.043533
     15 H15         -1.2370     3.5620    -0.2090 hc         1 4WK       0.043533
     16 H17         -2.6100     1.6190     0.3310 hc         1 4WK       0.068700
     17 H20         -1.0800     1.1610    -2.2790 hc         1 4WK       0.043533
     18 H19         -2.7180     0.6010    -1.9290 hc         1 4WK       0.043533
     19 H18         -2.3790     2.3190    -2.0470 hc         1 4WK       0.043533
     20 H23          2.4260    -0.4290    -1.5000 hx         1 4WK       0.113700
     21 H21         -0.9270     0.2560     1.4250 h1         1 4WK       0.096700
     22 H22          0.1750    -0.6640    -1.1340 hn         1 4WK       0.347500
     23 H26          2.9660    -2.1750     0.9670 hc         1 4WK       0.087367
     24 H24          1.9110    -2.6100    -0.3810 hc         1 4WK       0.087367
     25 H25          3.6380    -2.4210    -0.6550 hc         1 4WK       0.087367
     26 H27          3.8750     0.2780     0.9600 hn         1 4WK       0.463467
     27 H28          4.6090    -0.1740    -0.4450 hn         1 4WK       0.463467
     28 H29          3.7080     1.1900    -0.3940 hn         1 4WK       0.463467
     29 H31         -3.8410    -1.7270     0.7360 hn         1 4WK       0.330500
     30 H30         -3.3040    -0.3130     1.5520 hn         1 4WK       0.330500
     31 O12         -1.7740    -1.9080    -0.7100 o          1 4WK      -0.609100
@<TRIPOS>BOND
     1     1     2 1   
     2     1    13 1   
     3     1    14 1   
     4     1    15 1   
     5     2     3 1   
     6     2     7 1   
     7     2    16 1   
     8     3    17 1   
     9     3    18 1   
    10     3    19 1   
    11     4     5 1   
    12     4     8 1   
    13     4     9 2   
    14     5    10 1   
    15     5    11 1   
    16     5    20 1   
    17     6     7 1   
    18     6    12 1   
    19     6    31 2   
    20     7     8 1   
    21     7    21 1   
    22     8    22 1   
    23    10    23 1   
    24    10    24 1   
    25    10    25 1   
    26    11    26 1   
    27    11    27 1   
    28    11    28 1   
    29    12    29 1   
    30    12    30 1   
@<TRIPOS>SUBSTRUCTURE
     1 4WK         1 TEMP              0 ****  ****    0 ROOT
