@<TRIPOS>MOLECULE
4WK
   31    30     1     0     0
SMALL
No Charge or Current Charge


@<TRIPOS>ATOM
      1 C1          -0.7080     2.5890     0.3160 c3         1 4WK      -0.093100
      2 C2          -1.6420     1.4510    -0.1610 c3         1 4WK      -0.068700
      3 C3          -1.8270     1.4960    -1.6980 c3         1 4WK      -0.093100
      4 C6           1.3430    -0.1840     0.4050 c          1 4WK       0.586100
      5 C8           2.5790    -0.6750    -0.4170 c3         1 4WK       0.014300
      6 C11         -2.2470    -1.0690     0.1020 c          1 4WK       0.598100
      7 C4          -1.1880     0.0470     0.3560 c3         1 4WK       0.016700
      8 N5           0.1230    -0.3620    -0.2090 ns         1 4WK      -0.444900
      9 O7           1.4620     0.3620     1.4930 o          1 4WK      -0.594100
     10 C9           3.0880    -2.0330     0.1020 c3         1 4WK      -0.126100
     11 N10          3.7210     0.3410    -0.4010 nz         1 4WK      -0.963000
     12 N13         -3.4650    -0.8930     0.6600 nt         1 4WK      -0.588000
     13 H14         -0.5890     2.5650     1.4060 hc         1 4WK       0.043533
     14 H16          0.2850     2.5060    -0.1420 hc         1 4WK       0.043533
     15 H15         -1.1230     3.5680     0.0450 hc         1 4WK       0.043533
     16 H17         -2.6230     1.6640     0.2830 hc         1 4WK       0.068700
     17 H20         -0.8750     1.3270    -2.2170 hc         1 4WK       0.043533
     18 H19         -2.5420     0.7350    -2.0330 hc         1 4WK       0.043533
     19 H18         -2.2120     2.4740    -2.0110 hc         1 4WK       0.043533
     20 H23          2.2380    -0.7980    -1.4510 hx         1 4WK       0.113700
     21 H21         -1.0910     0.1050     1.4480 h1         1 4WK       0.096700
     22 H22          0.1220    -0.8550    -1.0960 hn         1 4WK       0.347500
     23 H26          3.4330    -1.9530     1.1400 hc         1 4WK       0.087367
     24 H24          2.2890    -2.7840     0.0670 hc         1 4WK       0.087367
     25 H25          3.9200    -2.3990    -0.5120 hc         1 4WK       0.087367
     26 H27          4.0520     0.5570     0.5530 hn         1 4WK       0.518667
     27 H28          4.5580     0.0400    -0.9260 hn         1 4WK       0.518667
     28 H29          3.4640     1.2570    -0.8030 hn         1 4WK       0.518667
     29 H31         -4.1770    -1.5930     0.5160 hn         1 4WK       0.330500
     30 H30         -3.6580    -0.0770     1.2220 hn         1 4WK       0.330500
     31 O12         -2.0300    -2.0670    -0.5690 o          1 4WK      -0.609100
@<TRIPOS>BOND
     1     1     2 1   
     2     1    13 1   
     3     1    14 1   
     4     1    15 1   
     5     2     3 1   
     6     2     7 1   
     7     2    16 1   
     8     3    17 1   
     9     3    18 1   
    10     3    19 1   
    11     4     5 1   
    12     4     8 1   
    13     4     9 2   
    14     5    10 1   
    15     5    11 1   
    16     5    20 1   
    17     6     7 1   
    18     6    12 1   
    19     6    31 2   
    20     7     8 1   
    21     7    21 1   
    22     8    22 1   
    23    10    23 1   
    24    10    24 1   
    25    10    25 1   
    26    11    26 1   
    27    11    27 1   
    28    11    28 1   
    29    12    29 1   
    30    12    30 1   
@<TRIPOS>SUBSTRUCTURE
     1 4WK         1 TEMP              0 ****  ****    0 ROOT
