@<TRIPOS>MOLECULE
4WL
   15    16     1     0     0
SMALL
No Charge or Current Charge


@<TRIPOS>ATOM
      1 O2           3.2500    -1.2930     0.0220 o          1 4WL      -0.715500
      2 C1           2.7660    -0.1690     0.0140 c          1 4WL       0.729600
      3 O3           3.4480     0.8460     0.0050 o          1 4WL      -0.715500
      4 C4           1.2870    -0.0140     0.0150 cc         1 4WL      -0.162600
      5 C5           0.3740    -1.0630     0.0250 cd         1 4WL      -0.162000
      6 C6          -0.9050    -0.4850     0.0220 cd         1 4WL      -0.192000
      7 C7          -0.8180     0.8350     0.0120 cc         1 4WL      -0.190000
      8 N8           0.5260     1.1810     0.0070 na         1 4WL      -0.072000
      9 S11         -2.5700    -1.0560     0.0290 ss         1 4WL       0.092000
     10 C10         -3.1010     0.6680     0.0160 cd         1 4WL      -0.253000
     11 C9          -2.0320     1.5470     0.0080 cc         1 4WL      -0.092000
     12 H5           0.6070    -2.1240     0.0320 ha         1 4WL       0.139000
     13 H8           0.9060     2.1220    -0.0010 hn         1 4WL       0.359000
     14 H9          -2.1040     2.6320    -0.0000 ha         1 4WL       0.114000
     15 H10         -4.1570     0.9080     0.0160 h4         1 4WL       0.122000
@<TRIPOS>BOND
     1     1     2 1   
     2     2     3 1   
     3     2     4 1   
     4     4     5 2   
     5     4     8 1   
     6     5     6 1   
     7     5    12 1   
     8     6     7 2   
     9     6     9 1   
    10     7     8 1   
    11     7    11 1   
    12     8    13 1   
    13     9    10 1   
    14    10    11 2   
    15    10    15 1   
    16    11    14 1   
@<TRIPOS>SUBSTRUCTURE
     1 4WL         1 TEMP              0 ****  ****    0 ROOT
