@<TRIPOS>MOLECULE
4WL
   15    16     1     0     0
SMALL
abcg2


@<TRIPOS>ATOM
      1 O2           3.2920    -1.2130     0.0220 o          1 4WL      -0.715500
      2 C1           2.7450    -0.0960     0.0130 c          1 4WL       0.729600
      3 O3           3.2950     1.0250     0.0010 o          1 4WL      -0.715500
      4 C4           1.2460    -0.0880     0.0170 cc         1 4WL      -0.162600
      5 C5           0.3500    -1.1400     0.0260 cd         1 4WL      -0.162000
      6 C6          -0.9340    -0.5540     0.0240 cd         1 4WL      -0.192000
      7 C7          -0.7810     0.8280     0.0140 cc         1 4WL      -0.190000
      8 N8           0.5490     1.0900     0.0100 na         1 4WL      -0.072000
      9 S11         -2.6070    -0.9760     0.0270 ss         1 4WL       0.092000
     10 C10         -3.0620     0.7020     0.0150 cd         1 4WL      -0.253000
     11 C9          -2.0030     1.5550     0.0080 cc         1 4WL      -0.092000
     12 H5           0.6050    -2.1870     0.0330 ha         1 4WL       0.139000
     13 H8           0.9920     1.9950    -0.0010 hn         1 4WL       0.359000
     14 H9          -2.0990     2.6310     0.0010 ha         1 4WL       0.114000
     15 H10         -4.1090     0.9630     0.0130 h4         1 4WL       0.122000
@<TRIPOS>BOND
     1     1     2 1   
     2     2     3 1   
     3     2     4 1   
     4     4     5 2   
     5     4     8 1   
     6     5     6 1   
     7     5    12 1   
     8     6     7 2   
     9     6     9 1   
    10     7     8 1   
    11     7    11 1   
    12     8    13 1   
    13     9    10 1   
    14    10    11 2   
    15    10    15 1   
    16    11    14 1   
@<TRIPOS>SUBSTRUCTURE
     1 4WL         1 TEMP              0 ****  ****    0 ROOT
