@<TRIPOS>MOLECULE
4WM
   53    53     1     0     0
SMALL
abcg2


@<TRIPOS>ATOM
      1 N            1.1840    -0.0350    -0.8600 n7         1 4WM      -0.943400
      2 O4           0.1630    -1.6020     0.6430 oh         1 4WM      -0.709000
      3 C12          1.3200    -1.1990    -0.0440 c3         1 4WM       0.630500
      4 O3           1.7570    -2.2080    -0.8960 os         1 4WM      -0.494000
      5 C13          2.7450    -3.1350    -0.4280 c3         1 4WM       0.206000
      6 C16          2.8300    -4.1820    -1.5310 c3         1 4WM      -0.105100
      7 C15          4.0940    -2.4350    -0.2710 c3         1 4WM      -0.105100
      8 C14          2.3400    -3.8050     0.8850 c3         1 4WM      -0.105100
      9 C8           0.8070     1.2340    -0.2670 c3         1 4WM       0.224500
     10 C9           1.8410     1.6940     0.7640 c3         1 4WM      -0.074400
     11 C10          3.2490     1.8000     0.1940 c3         1 4WM      -0.103400
     12 C11          4.2420     2.3780     1.1890 c3         1 4WM       0.380300
     13 O2           4.3300     1.6210     2.3650 oh         1 4WM      -0.685000
     14 O1           5.4750     2.4780     0.5360 oh         1 4WM      -0.685000
     15 C7          -0.5910     1.3240     0.3630 c3         1 4WM       0.098600
     16 SE          -1.9960     0.8380    -0.9200 ss         1 4WM      -0.603000
     17 C2          -3.5120     0.7830     0.3460 c6         1 4WM       0.206500
     18 C3          -3.4560    -0.4610     1.1780 c2         1 4WM      -0.233200
     19 C4          -4.5170    -1.2310     1.4100 c2         1 4WM      -0.198200
     20 C5          -5.8970    -0.9140     0.9200 c6         1 4WM      -0.049200
     21 C6          -6.0000     0.5290     0.4400 c6         1 4WM      -0.074400
     22 C1          -4.8120     0.8840    -0.4480 c6         1 4WM      -0.071400
     23 H1           0.6790    -0.2340    -1.7150 hn         1 4WM       0.456000
     24 H4           2.0450    -0.9940     0.7510 h3         1 4WM       0.071700
     25 H5           3.0900    -3.7280    -2.4890 hc         1 4WM       0.042922
     26 H6           3.5940    -4.9230    -1.2940 hc         1 4WM       0.042922
     27 H7           1.8800    -4.7070    -1.6470 hc         1 4WM       0.042922
     28 H8           4.0810    -1.6840     0.5220 hc         1 4WM       0.042922
     29 H9           4.8650    -3.1600    -0.0080 hc         1 4WM       0.042922
     30 H10          4.3950    -1.9460    -1.1990 hc         1 4WM       0.042922
     31 H11          1.3570    -4.2700     0.8070 hc         1 4WM       0.042922
     32 H12          3.0630    -4.5850     1.1300 hc         1 4WM       0.042922
     33 H13          2.3220    -3.1080     1.7240 hc         1 4WM       0.042922
     34 H14          0.8380     1.9540    -1.0920 h1         1 4WM       0.066700
     35 H15          1.5280     2.6750     1.1340 hc         1 4WM       0.046700
     36 H16          1.8280     1.0320     1.6350 hc         1 4WM       0.046700
     37 H17          3.6050     0.8210    -0.1460 hc         1 4WM       0.066700
     38 H18          3.2310     2.4440    -0.6890 hc         1 4WM       0.066700
     39 H19          4.5080     0.7020     2.1320 ho         1 4WM       0.451500
     40 H20          6.0750     2.9990     1.0810 ho         1 4WM       0.451500
     41 H21         -0.6680     0.6700     1.2320 h1         1 4WM       0.067200
     42 H22         -0.7700     2.3500     0.6900 h1         1 4WM       0.067200
     43 H23         -3.4000     1.6680     0.9840 h1         1 4WM       0.068700
     44 H24         -2.4990    -0.7320     1.6120 ha         1 4WM       0.185000
     45 H26         -4.3920    -2.1320     2.0020 ha         1 4WM       0.176000
     46 H28         -6.1680    -1.6020     0.1120 hc         1 4WM       0.050700
     47 H29         -6.6180    -1.1030     1.7200 hc         1 4WM       0.050700
     48 H30         -6.9340     0.6820    -0.1040 hc         1 4WM       0.044200
     49 H31         -6.0220     1.2020     1.3020 hc         1 4WM       0.044200
     50 H32         -4.9200     1.8890    -0.8590 hc         1 4WM       0.056700
     51 H33         -4.7920     0.1910    -1.2970 hc         1 4WM       0.056700
     52 H2           3.8980     3.3640     1.5240 h2         1 4WM       0.055700
     53 H3          -0.5660    -1.6700     0.0140 ho         1 4WM       0.457000
@<TRIPOS>BOND
     1     1     3 1   
     2     1     9 1   
     3     1    23 1   
     4     2     3 1   
     5     2    53 1   
     6     3     4 1   
     7     3    24 1   
     8     4     5 1   
     9     5     6 1   
    10     5     7 1   
    11     5     8 1   
    12     6    25 1   
    13     6    26 1   
    14     6    27 1   
    15     7    28 1   
    16     7    29 1   
    17     7    30 1   
    18     8    31 1   
    19     8    32 1   
    20     8    33 1   
    21     9    10 1   
    22     9    15 1   
    23     9    34 1   
    24    10    11 1   
    25    10    35 1   
    26    10    36 1   
    27    11    12 1   
    28    11    37 1   
    29    11    38 1   
    30    12    13 1   
    31    12    14 1   
    32    12    52 1   
    33    13    39 1   
    34    14    40 1   
    35    15    16 1   
    36    15    41 1   
    37    15    42 1   
    38    16    17 1   
    39    17    18 1   
    40    17    22 1   
    41    17    43 1   
    42    18    19 2   
    43    18    44 1   
    44    19    20 1   
    45    19    45 1   
    46    20    21 1   
    47    20    46 1   
    48    20    47 1   
    49    21    22 1   
    50    21    48 1   
    51    21    49 1   
    52    22    50 1   
    53    22    51 1   
@<TRIPOS>SUBSTRUCTURE
     1 4WM         1 TEMP              0 ****  ****    0 ROOT
