@<TRIPOS>MOLECULE
4WM
   53    53     1     0     0
SMALL
No Charge or Current Charge


@<TRIPOS>ATOM
      1 N            1.0140    -0.0410    -0.8200 n7         1 4WM      -0.943400
      2 O4           0.2800    -1.5520     0.6930 oh         1 4WM      -0.709000
      3 C12          1.4090    -1.1380     0.0060 c3         1 4WM       0.630500
      4 O3           1.7840    -2.1780    -0.8790 os         1 4WM      -0.494000
      5 C13          2.7610    -3.1520    -0.4350 c3         1 4WM       0.206000
      6 C16          2.9130    -4.1290    -1.6230 c3         1 4WM      -0.105100
      7 C15          4.1040    -2.4250    -0.1620 c3         1 4WM      -0.105100
      8 C14          2.2460    -3.9060     0.8180 c3         1 4WM      -0.105100
      9 C8           0.7430     1.2880    -0.2050 c3         1 4WM       0.224500
     10 C9           1.8410     1.7400     0.8000 c3         1 4WM      -0.074400
     11 C10          3.2680     1.8370     0.1920 c3         1 4WM      -0.103400
     12 C11          4.3200     2.4150     1.1610 c3         1 4WM       0.380300
     13 O2           4.5470     1.5400     2.2410 oh         1 4WM      -0.685000
     14 O1           5.5650     2.5290     0.5130 oh         1 4WM      -0.685000
     15 C7          -0.6900     1.3540     0.3970 c3         1 4WM       0.098600
     16 SE          -1.9830     0.8370    -0.8500 ss         1 4WM      -0.603000
     17 C2          -3.4600     0.6950     0.2540 c6         1 4WM       0.206500
     18 C3          -3.4720    -0.5450     1.1390 c2         1 4WM      -0.233200
     19 C4          -4.5910    -1.2100     1.4800 c2         1 4WM      -0.198200
     20 C5          -5.9820    -0.8120     1.0010 c6         1 4WM      -0.049200
     21 C6          -6.0050     0.5950     0.3530 c6         1 4WM      -0.074400
     22 C1          -4.7730     0.8050    -0.5590 c6         1 4WM      -0.071400
     23 H1           0.1310    -0.3420    -1.2340 hn         1 4WM       0.456000
     24 H4           2.1780    -0.8770     0.7450 h3         1 4WM       0.071700
     25 H5           3.2480    -3.5990    -2.5230 hc         1 4WM       0.042922
     26 H6           3.6500    -4.9090    -1.3940 hc         1 4WM       0.042922
     27 H7           1.9590    -4.6180    -1.8490 hc         1 4WM       0.042922
     28 H8           4.0580    -1.8140     0.7470 hc         1 4WM       0.042922
     29 H9           4.9120    -3.1530    -0.0240 hc         1 4WM       0.042922
     30 H10          4.3740    -1.7760    -1.0030 hc         1 4WM       0.042922
     31 H11          1.2470    -4.3230     0.6430 hc         1 4WM       0.042922
     32 H12          2.9170    -4.7370     1.0650 hc         1 4WM       0.042922
     33 H13          2.2030    -3.2500     1.6950 hc         1 4WM       0.042922
     34 H14          0.7440     2.0320    -1.0160 h1         1 4WM       0.066700
     35 H15          1.5650     2.7300     1.1820 hc         1 4WM       0.046700
     36 H16          1.8480     1.0710     1.6690 hc         1 4WM       0.046700
     37 H17          3.5960     0.8510    -0.1600 hc         1 4WM       0.066700
     38 H18          3.2250     2.4830    -0.6940 hc         1 4WM       0.066700
     39 H19          4.6220     0.6510     1.8400 ho         1 4WM       0.451500
     40 H20          6.0830     3.1650     1.0500 ho         1 4WM       0.451500
     41 H21         -0.7500     0.7100     1.2830 h1         1 4WM       0.067200
     42 H22         -0.8990     2.3820     0.7210 h1         1 4WM       0.067200
     43 H23         -3.4240     1.5690     0.9210 h1         1 4WM       0.068700
     44 H24         -2.4990    -0.8810     1.4990 ha         1 4WM       0.185000
     45 H26         -4.5370    -2.0940     2.1200 ha         1 4WM       0.176000
     46 H28         -6.3350    -1.5580     0.2760 hc         1 4WM       0.050700
     47 H29         -6.6890    -0.8390     1.8420 hc         1 4WM       0.050700
     48 H30         -6.9320     0.7290    -0.2200 hc         1 4WM       0.044200
     49 H31         -6.0100     1.3630     1.1400 hc         1 4WM       0.044200
     50 H32         -4.8280     1.7880    -1.0450 hc         1 4WM       0.056700
     51 H33         -4.7770     0.0550    -1.3620 hc         1 4WM       0.056700
     52 H2           4.0040     3.3990     1.5350 h2         1 4WM       0.055700
     53 H3           0.0040    -2.3300     0.1730 ho         1 4WM       0.457000
@<TRIPOS>BOND
     1     1     3 1   
     2     1     9 1   
     3     1    23 1   
     4     2     3 1   
     5     2    53 1   
     6     3     4 1   
     7     3    24 1   
     8     4     5 1   
     9     5     6 1   
    10     5     7 1   
    11     5     8 1   
    12     6    25 1   
    13     6    26 1   
    14     6    27 1   
    15     7    28 1   
    16     7    29 1   
    17     7    30 1   
    18     8    31 1   
    19     8    32 1   
    20     8    33 1   
    21     9    10 1   
    22     9    15 1   
    23     9    34 1   
    24    10    11 1   
    25    10    35 1   
    26    10    36 1   
    27    11    12 1   
    28    11    37 1   
    29    11    38 1   
    30    12    13 1   
    31    12    14 1   
    32    12    52 1   
    33    13    39 1   
    34    14    40 1   
    35    15    16 1   
    36    15    41 1   
    37    15    42 1   
    38    16    17 1   
    39    17    18 1   
    40    17    22 1   
    41    17    43 1   
    42    18    19 2   
    43    18    44 1   
    44    19    20 1   
    45    19    45 1   
    46    20    21 1   
    47    20    46 1   
    48    20    47 1   
    49    21    22 1   
    50    21    48 1   
    51    21    49 1   
    52    22    50 1   
    53    22    51 1   
@<TRIPOS>SUBSTRUCTURE
     1 4WM         1 TEMP              0 ****  ****    0 ROOT
