@<TRIPOS>MOLECULE
4WN
   39    41     1     0     0
SMALL
bcc


@<TRIPOS>ATOM
      1 CAJ          0.4990    -1.4930     0.2880 c6         1 4WN       0.168800
      2 CAH          1.7600    -2.0260    -0.3610 c6         1 4WN      -0.031100
      3 CAO          2.8990    -1.0510    -0.2400 ca         1 4WN      -0.028300
      4 CAF          4.2110    -1.4800    -0.4320 ca         1 4WN      -0.169000
      5 CAC          5.2570    -0.5800    -0.3110 ca         1 4WN      -0.088000
      6 CAE          5.0090     0.7440     0.0170 ca         1 4WN      -0.198000
      7 CAN          3.7010     1.1880     0.2170 ca         1 4WN       0.147600
      8 NAB          3.4480     2.5210     0.5000 nv         1 4WN      -0.817200
      9 CAP          2.6350     0.2810     0.0660 ca         1 4WN      -0.131300
     10 CAL          1.2260     0.7750     0.2590 c6         1 4WN       0.222100
     11 NAR          0.2290    -0.1600    -0.2160 n3         1 4WN      -0.716600
     12 CAK         -1.1100     0.3040     0.0850 c3         1 4WN       0.170800
     13 CAI         -2.1540    -0.2990    -0.8590 c3         1 4WN      -0.105700
     14 CAQ         -3.5350     0.1650    -0.5500 cc         1 4WN       0.398800
     15 NAM         -4.1830     1.1010    -1.2030 nd         1 4WN      -0.670000
     16 CAD         -5.3900     1.2280    -0.5770 cd         1 4WN       0.298200
     17 CAG         -5.4700     0.3550     0.4680 cc         1 4WN      -0.265600
     18 NAS         -4.2810    -0.3210     0.4740 na         1 4WN      -0.186900
     19 CAA         -3.8930    -1.3320     1.4320 c3         1 4WN       0.028600
     20 H1          -0.3370    -2.1540     0.0530 h1         1 4WN       0.029200
     21 H2           0.6040    -1.4970     1.3870 h1         1 4WN       0.029200
     22 H3           2.0390    -2.9810     0.0900 hc         1 4WN       0.056200
     23 H4           1.5590    -2.2300    -1.4170 hc         1 4WN       0.056200
     24 H5           4.4070    -2.5190    -0.6670 ha         1 4WN       0.130000
     25 H6           6.2780    -0.9090    -0.4590 ha         1 4WN       0.128000
     26 H7           5.8320     1.4400     0.1260 ha         1 4WN       0.129000
     27 H8           4.2560     3.0430     0.8020 hn         1 4WN       0.385300
     28 H9           2.6660     2.7020     1.1100 hn         1 4WN       0.385300
     29 H10          1.0740     1.0150     1.3300 h1         1 4WN       0.037200
     30 H11          1.0960     1.7200    -0.2790 h1         1 4WN       0.037200
     31 H13         -1.3780     0.1120     1.1370 h1         1 4WN       0.035200
     32 H14         -1.1370     1.3890    -0.0410 h1         1 4WN       0.035200
     33 H15         -1.9190     0.0030    -1.8800 hc         1 4WN       0.068700
     34 H16         -2.1130    -1.3910    -0.8400 hc         1 4WN       0.068700
     35 H17         -6.1370     1.9310    -0.9120 h4         1 4WN       0.037100
     36 H18         -6.2470     0.1520     1.1850 h4         1 4WN       0.172000
     37 H19         -3.3770    -0.8940     2.2850 h1         1 4WN       0.051367
     38 H20         -4.7790    -1.8520     1.7880 h1         1 4WN       0.051367
     39 H21         -3.2370    -2.0610     0.9630 h1         1 4WN       0.051367
@<TRIPOS>BOND
     1     1     2 1   
     2     1    11 1   
     3     1    20 1   
     4     1    21 1   
     5     2     3 1   
     6     2    22 1   
     7     2    23 1   
     8     3     4 ar  
     9     3     9 ar  
    10     4     5 ar  
    11     4    24 1   
    12     5     6 ar  
    13     5    25 1   
    14     6     7 ar  
    15     6    26 1   
    16     7     8 1   
    17     7     9 ar  
    18     8    27 1   
    19     8    28 1   
    20     9    10 1   
    21    10    11 1   
    22    10    29 1   
    23    10    30 1   
    24    11    12 1   
    25    12    13 1   
    26    12    31 1   
    27    12    32 1   
    28    13    14 1   
    29    13    33 1   
    30    13    34 1   
    31    14    15 2   
    32    14    18 1   
    33    15    16 1   
    34    16    17 2   
    35    16    35 1   
    36    17    18 1   
    37    17    36 1   
    38    18    19 1   
    39    19    37 1   
    40    19    38 1   
    41    19    39 1   
@<TRIPOS>SUBSTRUCTURE
     1 4WN         1 TEMP              0 ****  ****    0 ROOT
