@<TRIPOS>MOLECULE
4WN
   39    41     1     0     0
SMALL
No Charge or Current Charge


@<TRIPOS>ATOM
      1 CAJ          0.5410    -1.6030     0.0530 c6         1 4WN       0.168800
      2 CAH          1.9010    -2.0400    -0.5310 c6         1 4WN      -0.031100
      3 CAO          3.0180    -1.0240    -0.2910 ca         1 4WN      -0.028300
      4 CAF          4.3570    -1.4140    -0.4740 ca         1 4WN      -0.151000
      5 CAC          5.3970    -0.4960    -0.2670 ca         1 4WN      -0.070000
      6 CAE          5.0980     0.8180     0.1250 ca         1 4WN      -0.180000
      7 CAN          3.7670     1.2220     0.3090 ca         1 4WN       0.286000
      8 NAB          3.5330     2.5150     0.7070 nv         1 4WN      -1.066000
      9 CAP          2.7130     0.3030     0.0910 ca         1 4WN      -0.131300
     10 CAL          1.2480     0.7210     0.2990 c6         1 4WN       0.222100
     11 NAR          0.2380    -0.1920    -0.3050 n3         1 4WN      -0.716600
     12 CAK         -1.1460     0.2360     0.0190 c3         1 4WN       0.170800
     13 CAI         -2.2490    -0.4730    -0.7920 c3         1 4WN      -0.105700
     14 CAQ         -3.6120     0.0970    -0.5110 cc         1 4WN       0.398800
     15 NAM         -4.2120     1.0050    -1.2650 nd         1 4WN      -0.670000
     16 CAD         -5.4260     1.2540    -0.6610 cd         1 4WN       0.232900
     17 CAG         -5.5680     0.4910     0.4690 cc         1 4WN      -0.233000
     18 NAS         -4.4100    -0.2500     0.5660 na         1 4WN      -0.165500
     19 CAA         -4.0940    -1.2260     1.6210 c3         1 4WN       0.057900
     20 H1          -0.2260    -2.2900    -0.3290 h1         1 4WN       0.029200
     21 H2           0.5630    -1.7170     1.1470 h1         1 4WN       0.029200
     22 H3           2.1790    -3.0150    -0.1100 hc         1 4WN       0.056200
     23 H4           1.7910    -2.1930    -1.6130 hc         1 4WN       0.056200
     24 H5           4.5920    -2.4320    -0.7770 ha         1 4WN       0.112000
     25 H6           6.4310    -0.8020    -0.4090 ha         1 4WN       0.110000
     26 H7           5.9090     1.5220     0.2880 ha         1 4WN       0.111000
     27 H8           4.3140     3.1170     0.9620 hn         1 4WN       0.440500
     28 H9           2.5980     2.8140     0.9710 hn         1 4WN       0.440500
     29 H10          1.0750     0.7990     1.3830 h1         1 4WN       0.037200
     30 H11          1.1070     1.7300    -0.1160 h1         1 4WN       0.037200
     31 H13         -1.3410     0.0890     1.0900 h1         1 4WN       0.035200
     32 H14         -1.2420     1.3130    -0.1750 h1         1 4WN       0.035200
     33 H15         -2.0230    -0.3730    -1.8590 hc         1 4WN       0.068700
     34 H16         -2.2560    -1.5450    -0.5730 hc         1 4WN       0.068700
     35 H17         -6.1310     1.9670    -1.0720 h4         1 4WN       0.037100
     36 H18         -6.3810     0.4280     1.1810 h4         1 4WN       0.154000
     37 H19         -3.2060    -0.8980     2.1760 h1         1 4WN       0.051367
     38 H20         -4.9390    -1.3110     2.3160 h1         1 4WN       0.051367
     39 H21         -3.9000    -2.2080     1.1720 h1         1 4WN       0.051367
@<TRIPOS>BOND
     1     1     2 1   
     2     1    11 1   
     3     1    20 1   
     4     1    21 1   
     5     2     3 1   
     6     2    22 1   
     7     2    23 1   
     8     3     4 ar  
     9     3     9 ar  
    10     4     5 ar  
    11     4    24 1   
    12     5     6 ar  
    13     5    25 1   
    14     6     7 ar  
    15     6    26 1   
    16     7     8 1   
    17     7     9 ar  
    18     8    27 1   
    19     8    28 1   
    20     9    10 1   
    21    10    11 1   
    22    10    29 1   
    23    10    30 1   
    24    11    12 1   
    25    12    13 1   
    26    12    31 1   
    27    12    32 1   
    28    13    14 1   
    29    13    33 1   
    30    13    34 1   
    31    14    15 2   
    32    14    18 1   
    33    15    16 1   
    34    16    17 2   
    35    16    35 1   
    36    17    18 1   
    37    17    36 1   
    38    18    19 1   
    39    19    37 1   
    40    19    38 1   
    41    19    39 1   
@<TRIPOS>SUBSTRUCTURE
     1 4WN         1 TEMP              0 ****  ****    0 ROOT
