@<TRIPOS>MOLECULE
4WO
   35    36     1     0     0
SMALL
No Charge or Current Charge


@<TRIPOS>ATOM
      1 CAJ         -0.1760     1.4670    -1.0460 c6         1 4WO       0.167800
      2 CAH         -1.4870     2.0890    -0.5210 c6         1 4WO      -0.032100
      3 CAO         -2.5410     1.0480    -0.1390 ca         1 4WO      -0.027300
      4 CAF         -3.8760     1.4520     0.0420 ca         1 4WO      -0.153000
      5 CAD         -4.8570     0.5160     0.3990 ca         1 4WO      -0.069000
      6 CAE         -4.5030    -0.8300     0.5750 ca         1 4WO      -0.181000
      7 CAN         -3.1750    -1.2470     0.4020 ca         1 4WO       0.290000
      8 NAB         -2.8880    -2.5780     0.5770 nv         1 4WO      -1.071000
      9 CAP         -2.1780    -0.3060     0.0510 ca         1 4WO      -0.135300
     10 CAK         -0.7200    -0.7450    -0.1640 c6         1 4WO       0.224100
     11 NAQ          0.2780     0.3610    -0.1620 n3         1 4WO      -0.725600
     12 CAI          1.6440    -0.1380    -0.4610 c3         1 4WO       0.178800
     13 CAG          2.7660     0.8870    -0.2110 c3         1 4WO      -0.141400
     14 CAM          4.1250     0.2170    -0.3730 c          1 4WO       0.590100
     15 OAC          4.6860     0.0750    -1.4510 o          1 4WO      -0.491000
     16 OAL          4.6210    -0.2290     0.8250 os         1 4WO      -0.445100
     17 CAA          5.8970    -0.8960     0.8220 c3         1 4WO       0.152900
     18 H1          -0.3370     1.0920    -2.0680 h1         1 4WO       0.034200
     19 H2           0.5740     2.2670    -1.1100 h1         1 4WO       0.034200
     20 H3          -1.2620     2.7010     0.3630 hc         1 4WO       0.055700
     21 H4          -1.8900     2.7760    -1.2770 hc         1 4WO       0.055700
     22 H5          -4.1530     2.4950    -0.0940 ha         1 4WO       0.112000
     23 H6          -5.8890     0.8330     0.5360 ha         1 4WO       0.110000
     24 H7          -5.2700    -1.5510     0.8450 ha         1 4WO       0.110000
     25 H8          -3.6000    -3.2030     0.9480 hn         1 4WO       0.443000
     26 H9          -1.9220    -2.8960     0.6050 hn         1 4WO       0.443000
     27 H10         -0.4500    -1.4670     0.6200 h1         1 4WO       0.037200
     28 H11         -0.6740    -1.2850    -1.1210 h1         1 4WO       0.037200
     29 H13          1.8520    -1.0120     0.1730 h1         1 4WO       0.045700
     30 H14          1.7020    -0.4820    -1.5030 h1         1 4WO       0.045700
     31 H15          2.6900     1.7080    -0.9310 hc         1 4WO       0.079700
     32 H16          2.6590     1.2490     0.8170 hc         1 4WO       0.079700
     33 H17          6.1720    -1.1970     1.8410 h1         1 4WO       0.048367
     34 H18          5.8660    -1.7990     0.1980 h1         1 4WO       0.048367
     35 H19          6.6850    -0.2350     0.4390 h1         1 4WO       0.048367
@<TRIPOS>BOND
     1     1     2 1   
     2     1    11 1   
     3     1    18 1   
     4     1    19 1   
     5     2     3 1   
     6     2    20 1   
     7     2    21 1   
     8     3     4 ar  
     9     3     9 ar  
    10     4     5 ar  
    11     4    22 1   
    12     5     6 ar  
    13     5    23 1   
    14     6     7 ar  
    15     6    24 1   
    16     7     8 1   
    17     7     9 ar  
    18     8    25 1   
    19     8    26 1   
    20     9    10 1   
    21    10    11 1   
    22    10    27 1   
    23    10    28 1   
    24    11    12 1   
    25    12    13 1   
    26    12    29 1   
    27    12    30 1   
    28    13    14 1   
    29    13    31 1   
    30    13    32 1   
    31    14    15 2   
    32    14    16 1   
    33    16    17 1   
    34    17    33 1   
    35    17    34 1   
    36    17    35 1   
@<TRIPOS>SUBSTRUCTURE
     1 4WO         1 TEMP              0 ****  ****    0 ROOT
