@<TRIPOS>MOLECULE
4WO
   35    36     1     0     0
SMALL
bcc


@<TRIPOS>ATOM
      1 CAJ         -0.0890     1.3090    -0.8090 c6         1 4WO       0.167800
      2 CAH         -1.2810     2.0100    -0.1890 c6         1 4WO      -0.032100
      3 CAO         -2.4480     1.0750    -0.0230 ca         1 4WO      -0.027300
      4 CAF         -3.7360     1.5870     0.1320 ca         1 4WO      -0.171000
      5 CAD         -4.8110     0.7250     0.2650 ca         1 4WO      -0.087000
      6 CAE         -4.6150    -0.6470     0.2390 ca         1 4WO      -0.199000
      7 CAN         -3.3330    -1.1770     0.0750 ca         1 4WO       0.151600
      8 NAB         -3.1580    -2.5460    -0.0310 nv         1 4WO      -0.822200
      9 CAP         -2.2360    -0.3010    -0.0410 ca         1 4WO      -0.135300
     10 CAK         -0.8580    -0.8750    -0.2320 c6         1 4WO       0.224100
     11 NAQ          0.1970     0.1020    -0.0580 n3         1 4WO      -0.725600
     12 CAI          1.4920    -0.4740    -0.3690 c3         1 4WO       0.178800
     13 CAG          2.6180     0.2930     0.3070 c3         1 4WO      -0.141400
     14 CAM          3.9750    -0.2910     0.0230 c          1 4WO       0.639100
     15 OAC          4.1750    -1.3370    -0.5440 o          1 4WO      -0.540000
     16 OAL          4.9460     0.4840     0.4890 os         1 4WO      -0.421900
     17 CAA          6.2900     0.0340     0.3210 c3         1 4WO       0.129700
     18 H1          -0.2820     1.0900    -1.8730 h1         1 4WO       0.034200
     19 H2           0.7750     1.9740    -0.7790 h1         1 4WO       0.034200
     20 H3          -0.9890     2.4140     0.7850 hc         1 4WO       0.055700
     21 H4          -1.5760     2.8640    -0.8020 hc         1 4WO       0.055700
     22 H5          -3.8880     2.6600     0.1390 ha         1 4WO       0.130000
     23 H6          -5.8120     1.1170     0.3890 ha         1 4WO       0.128000
     24 H7          -5.4590    -1.3190     0.3390 ha         1 4WO       0.128000
     25 H8          -3.9320    -3.0960     0.3090 hn         1 4WO       0.387800
     26 H9          -2.2840    -2.9170     0.3050 hn         1 4WO       0.387800
     27 H10         -0.6820    -1.6750     0.4960 h1         1 4WO       0.037200
     28 H11         -0.8130    -1.3570    -1.2270 h1         1 4WO       0.037200
     29 H13          1.5020    -1.5040    -0.0050 h1         1 4WO       0.045700
     30 H14          1.6620    -0.5300    -1.4550 h1         1 4WO       0.045700
     31 H15          2.6250     1.3450     0.0130 hc         1 4WO       0.079700
     32 H16          2.4670     0.2890     1.3910 hc         1 4WO       0.079700
     33 H17          6.9200     0.8040     0.7550 h1         1 4WO       0.048367
     34 H18          6.4630    -0.9080     0.8420 h1         1 4WO       0.048367
     35 H19          6.5430    -0.0860    -0.7320 h1         1 4WO       0.048367
@<TRIPOS>BOND
     1     1     2 1   
     2     1    11 1   
     3     1    18 1   
     4     1    19 1   
     5     2     3 1   
     6     2    20 1   
     7     2    21 1   
     8     3     4 ar  
     9     3     9 ar  
    10     4     5 ar  
    11     4    22 1   
    12     5     6 ar  
    13     5    23 1   
    14     6     7 ar  
    15     6    24 1   
    16     7     8 1   
    17     7     9 ar  
    18     8    25 1   
    19     8    26 1   
    20     9    10 1   
    21    10    11 1   
    22    10    27 1   
    23    10    28 1   
    24    11    12 1   
    25    12    13 1   
    26    12    29 1   
    27    12    30 1   
    28    13    14 1   
    29    13    31 1   
    30    13    32 1   
    31    14    15 2   
    32    14    16 1   
    33    16    17 1   
    34    17    33 1   
    35    17    34 1   
    36    17    35 1   
@<TRIPOS>SUBSTRUCTURE
     1 4WO         1 TEMP              0 ****  ****    0 ROOT
