@<TRIPOS>MOLECULE
4WP
   33    34     1     0     0
SMALL
abcg2


@<TRIPOS>ATOM
      1 CAJ         -0.8040     1.9090    -0.2800 c6         1 4WP       0.169800
      2 CAH         -2.1370     1.8760     0.4450 c6         1 4WP      -0.029100
      3 CAN         -2.8430     0.5640     0.2480 ca         1 4WP      -0.063300
      4 CAE         -4.2070     0.4390     0.5070 ca         1 4WP      -0.109000
      5 CAC         -4.8610    -0.7690     0.3320 ca         1 4WP      -0.108000
      6 CAD         -4.1470    -1.8790    -0.1100 ca         1 4WP      -0.111000
      7 CAF         -2.7920    -1.7620    -0.3680 ca         1 4WP      -0.108000
      8 CAO         -2.1290    -0.5480    -0.1920 ca         1 4WP      -0.076300
      9 CAK         -0.6590    -0.4580    -0.5090 c6         1 4WP       0.208100
     10 NAP         -0.0330     0.7240     0.0480 n3         1 4WP      -0.717600
     11 CAI          1.3500     0.8530    -0.3720 c3         1 4WP       0.175800
     12 CAG          2.2400    -0.2180     0.2400 c3         1 4WP      -0.143400
     13 CAM          3.6970     0.0030    -0.0610 c          1 4WP       0.590100
     14 OAB          4.1400     0.8920    -0.7450 o          1 4WP      -0.490000
     15 OAL          4.4570    -0.9160     0.5220 os         1 4WP      -0.446100
     16 CAA          5.8670    -0.8360     0.3140 c3         1 4WP       0.152900
     17 H1          -0.9660     2.0060    -1.3670 h1         1 4WP       0.036200
     18 H2          -0.2440     2.7920     0.0360 h1         1 4WP       0.036200
     19 H3          -1.9690     2.0440     1.5130 hc         1 4WP       0.056200
     20 H4          -2.7660     2.6990     0.0980 hc         1 4WP       0.056200
     21 H5          -4.7610     1.3070     0.8470 ha         1 4WP       0.110000
     22 H6          -5.9210    -0.8490     0.5350 ha         1 4WP       0.112000
     23 H7          -4.6460    -2.8290    -0.2500 ha         1 4WP       0.112000
     24 H8          -2.2350    -2.6280    -0.7100 ha         1 4WP       0.109000
     25 H9          -0.1680    -1.3520    -0.1180 h1         1 4WP       0.039700
     26 H10         -0.5330    -0.4960    -1.6070 h1         1 4WP       0.039700
     27 H12          1.4450     0.8360    -1.4700 h1         1 4WP       0.046700
     28 H13          1.7040     1.8310    -0.0430 h1         1 4WP       0.046700
     29 H14          2.1030    -0.2430     1.3250 hc         1 4WP       0.080200
     30 H15          1.9790    -1.2180    -0.1190 hc         1 4WP       0.080200
     31 H16          6.1210    -0.9480    -0.7400 h1         1 4WP       0.048367
     32 H17          6.2730     0.1050     0.6830 h1         1 4WP       0.048367
     33 H18          6.2980    -1.6590     0.8760 h1         1 4WP       0.048367
@<TRIPOS>BOND
     1     1     2 1   
     2     1    10 1   
     3     1    17 1   
     4     1    18 1   
     5     2     3 1   
     6     2    19 1   
     7     2    20 1   
     8     3     4 ar  
     9     3     8 ar  
    10     4     5 ar  
    11     4    21 1   
    12     5     6 ar  
    13     5    22 1   
    14     6     7 ar  
    15     6    23 1   
    16     7     8 ar  
    17     7    24 1   
    18     8     9 1   
    19     9    10 1   
    20     9    25 1   
    21     9    26 1   
    22    10    11 1   
    23    11    12 1   
    24    11    27 1   
    25    11    28 1   
    26    12    13 1   
    27    12    29 1   
    28    12    30 1   
    29    13    14 2   
    30    13    15 1   
    31    15    16 1   
    32    16    31 1   
    33    16    32 1   
    34    16    33 1   
@<TRIPOS>SUBSTRUCTURE
     1 4WP         1 TEMP              0 ****  ****    0 ROOT
