@<TRIPOS>MOLECULE
4WP
   33    34     1     0     0
SMALL
No Charge or Current Charge


@<TRIPOS>ATOM
      1 CAJ         -0.6000     1.7830     0.0930 c6         1 4WP       0.169800
      2 CAH         -1.9780     1.7470     0.7930 c6         1 4WP      -0.029100
      3 CAN         -2.8390     0.5590     0.3630 ca         1 4WP      -0.063300
      4 CAE         -4.2170     0.5480     0.6500 ca         1 4WP      -0.109000
      5 CAC         -5.0110    -0.5480     0.2730 ca         1 4WP      -0.108000
      6 CAD         -4.4280    -1.6400    -0.3900 ca         1 4WP      -0.111000
      7 CAF         -3.0520    -1.6370    -0.6750 ca         1 4WP      -0.108000
      8 CAO         -2.2500    -0.5420    -0.2970 ca         1 4WP      -0.076300
      9 CAK         -0.7510    -0.5480    -0.6310 c6         1 4WP       0.208100
     10 NAP          0.0600     0.4520     0.1250 n3         1 4WP      -0.717600
     11 CAI          1.4770     0.5180    -0.3100 c3         1 4WP       0.175800
     12 CAG          2.2700    -0.7820    -0.0880 c3         1 4WP      -0.143400
     13 CAM          3.7400    -0.5560    -0.4180 c          1 4WP       0.590100
     14 OAB          4.2000    -0.6340    -1.5490 o          1 4WP      -0.490000
     15 OAL          4.4700    -0.2260     0.6960 os         1 4WP      -0.446100
     16 CAA          5.8770     0.0300     0.5320 c3         1 4WP       0.152900
     17 H1          -0.7340     2.1110    -0.9490 h1         1 4WP       0.036200
     18 H2           0.0250     2.5390     0.5910 h1         1 4WP       0.036200
     19 H3          -1.8230     1.6960     1.8790 hc         1 4WP       0.056200
     20 H4          -2.5070     2.6890     0.6000 hc         1 4WP       0.056200
     21 H5          -4.6730     1.3900     1.1670 ha         1 4WP       0.110000
     22 H6          -6.0760    -0.5510     0.4950 ha         1 4WP       0.112000
     23 H7          -5.0420    -2.4890    -0.6830 ha         1 4WP       0.112000
     24 H8          -2.6080    -2.4850    -1.1900 ha         1 4WP       0.109000
     25 H9          -0.3700    -1.5620    -0.4420 h1         1 4WP       0.039700
     26 H10         -0.6500    -0.3690    -1.7120 h1         1 4WP       0.039700
     27 H12          1.5330     0.7900    -1.3740 h1         1 4WP       0.046700
     28 H13          1.9870     1.3160     0.2480 h1         1 4WP       0.046700
     29 H14          2.1710    -1.0520     0.9690 hc         1 4WP       0.080200
     30 H15          1.8790    -1.5720    -0.7360 hc         1 4WP       0.080200
     31 H16          6.3920    -0.8530     0.1290 h1         1 4WP       0.048367
     32 H17          6.0450     0.8730    -0.1520 h1         1 4WP       0.048367
     33 H18          6.3350     0.2790     1.4970 h1         1 4WP       0.048367
@<TRIPOS>BOND
     1     1     2 1   
     2     1    10 1   
     3     1    17 1   
     4     1    18 1   
     5     2     3 1   
     6     2    19 1   
     7     2    20 1   
     8     3     4 ar  
     9     3     8 ar  
    10     4     5 ar  
    11     4    21 1   
    12     5     6 ar  
    13     5    22 1   
    14     6     7 ar  
    15     6    23 1   
    16     7     8 ar  
    17     7    24 1   
    18     8     9 1   
    19     9    10 1   
    20     9    25 1   
    21     9    26 1   
    22    10    11 1   
    23    11    12 1   
    24    11    27 1   
    25    11    28 1   
    26    12    13 1   
    27    12    29 1   
    28    12    30 1   
    29    13    14 2   
    30    13    15 1   
    31    15    16 1   
    32    16    31 1   
    33    16    32 1   
    34    16    33 1   
@<TRIPOS>SUBSTRUCTURE
     1 4WP         1 TEMP              0 ****  ****    0 ROOT
