@<TRIPOS>MOLECULE
4WR
   25    25     1     0     0
SMALL
abcg2


@<TRIPOS>ATOM
      1 C2          -0.5320     1.2870    -0.5380 c          1 4WR       0.616000
      2 C4          -2.6770     0.2650     0.1940 c          1 4WR       0.575200
      3 C5          -2.0100    -1.0090     0.0540 cc         1 4WR      -0.030700
      4 F5          -2.7280    -2.1050     0.3120 f          1 4WR      -0.134500
      5 C6          -0.7300    -1.0850    -0.3210 cd         1 4WR      -0.055400
      6 O2           0.0760     2.3010    -0.8080 o          1 4WR      -0.547000
      7 N3          -1.8420     1.3190    -0.1140 ns         1 4WR      -0.469500
      8 O4          -3.8300     0.4260     0.5350 o          1 4WR      -0.490000
      9 N1           0.0100     0.0260    -0.6170 n          1 4WR      -0.306000
     10 CAB          1.4110    -0.1440    -0.9940 c3         1 4WR       0.051000
     11 CAM          2.3250    -0.3610     0.2240 c3         1 4WR       0.157500
     12 NAA          2.2280     0.6530     1.2500 n8         1 4WR      -0.981200
     13 CAL          3.7560    -0.4910    -0.2910 c3         1 4WR       0.157800
     14 NAJ          4.6780    -0.9080     0.7500 n8         1 4WR      -0.969200
     15 H1          -0.2250    -2.0360    -0.4240 h4         1 4WR       0.222000
     16 H2          -2.2440     2.2450    -0.0390 hn         1 4WR       0.348500
     17 H3           1.4630    -1.0020    -1.6660 h1         1 4WR       0.073700
     18 H4           1.7180     0.7300    -1.5650 h1         1 4WR       0.073700
     19 H5           2.0460    -1.3190     0.6800 h1         1 4WR       0.057700
     20 H6           2.4130     1.5700     0.8600 hn         1 4WR       0.406500
     21 H7           1.2980     0.6850     1.6460 hn         1 4WR       0.406500
     22 H9           3.7440    -1.1670    -1.1590 h1         1 4WR       0.027700
     23 H10          4.0790     0.4840    -0.6700 h1         1 4WR       0.027700
     24 H11          4.4360    -1.8430     1.0560 hn         1 4WR       0.392000
     25 H12          5.6060    -0.9860     0.3540 hn         1 4WR       0.392000
@<TRIPOS>BOND
     1     1     6 2   
     2     1     7 1   
     3     1     9 1   
     4     2     3 1   
     5     2     7 1   
     6     2     8 2   
     7     3     4 1   
     8     3     5 2   
     9     5     9 1   
    10     5    15 1   
    11     7    16 1   
    12     9    10 1   
    13    10    11 1   
    14    10    17 1   
    15    10    18 1   
    16    11    12 1   
    17    11    13 1   
    18    11    19 1   
    19    12    20 1   
    20    12    21 1   
    21    13    14 1   
    22    13    22 1   
    23    13    23 1   
    24    14    24 1   
    25    14    25 1   
@<TRIPOS>SUBSTRUCTURE
     1 4WR         1 TEMP              0 ****  ****    0 ROOT
