@<TRIPOS>MOLECULE
4WR
   25    25     1     0     0
SMALL
No Charge or Current Charge


@<TRIPOS>ATOM
      1 C2          -0.7360     1.2560    -0.4800 c          1 4WR       0.616000
      2 C4          -2.8280     0.1710     0.2030 c          1 4WR       0.575200
      3 C5          -2.1340    -1.1300     0.0630 cc         1 4WR      -0.030700
      4 F5          -2.8270    -2.2520     0.3280 f          1 4WR      -0.134500
      5 C6          -0.8160    -1.1890    -0.3270 cd         1 4WR      -0.055400
      6 O2          -0.1710     2.3120    -0.7140 o          1 4WR      -0.547000
      7 N3          -2.0410     1.2460    -0.0900 ns         1 4WR      -0.469500
      8 O4          -3.9930     0.3120     0.5440 o          1 4WR      -0.490000
      9 N1          -0.1110    -0.0120    -0.5960 n          1 4WR      -0.306000
     10 CAB          1.3180    -0.0840    -1.0040 c3         1 4WR       0.051000
     11 CAM          2.3060    -0.3290     0.1710 c3         1 4WR       0.157500
     12 NAA          2.2060     0.7270     1.2110 n8         1 4WR      -0.981200
     13 CAL          3.7770    -0.4390    -0.3370 c3         1 4WR       0.157800
     14 NAJ          4.7330    -0.7690     0.7500 n8         1 4WR      -0.969200
     15 H1          -0.2490    -2.1080    -0.4470 h4         1 4WR       0.222000
     16 H2          -2.4790     2.1500    -0.0080 hn         1 4WR       0.348500
     17 H3           1.4260    -0.9040    -1.7260 h1         1 4WR       0.073700
     18 H4           1.6060     0.8330    -1.5330 h1         1 4WR       0.073700
     19 H5           2.0460    -1.2880     0.6420 h1         1 4WR       0.057700
     20 H6           3.0890     0.6940     1.7370 hn         1 4WR       0.406500
     21 H7           2.2420     1.6440     0.7540 hn         1 4WR       0.406500
     22 H9           3.8400    -1.2270    -1.1010 h1         1 4WR       0.027700
     23 H10          4.0840     0.5090    -0.8000 h1         1 4WR       0.027700
     24 H11          4.5110    -1.7000     1.1220 hn         1 4WR       0.392000
     25 H12          5.6700    -0.8890     0.3460 hn         1 4WR       0.392000
@<TRIPOS>BOND
     1     1     6 2   
     2     1     7 1   
     3     1     9 1   
     4     2     3 1   
     5     2     7 1   
     6     2     8 2   
     7     3     4 1   
     8     3     5 2   
     9     5     9 1   
    10     5    15 1   
    11     7    16 1   
    12     9    10 1   
    13    10    11 1   
    14    10    17 1   
    15    10    18 1   
    16    11    12 1   
    17    11    13 1   
    18    11    19 1   
    19    12    20 1   
    20    12    21 1   
    21    13    14 1   
    22    13    22 1   
    23    13    23 1   
    24    14    24 1   
    25    14    25 1   
@<TRIPOS>SUBSTRUCTURE
     1 4WR         1 TEMP              0 ****  ****    0 ROOT
