@<TRIPOS>MOLECULE
4WS
   34    35     1     0     0
SMALL
No Charge or Current Charge


@<TRIPOS>ATOM
      1 O25          3.5050     0.4720    -1.2220 o          1 4WS      -0.597100
      2 C29          3.3730     0.6660    -0.0230 c          1 4WS       0.601100
      3 C30          4.1550     1.7410     0.7210 c3         1 4WS      -0.183100
      4 N22          2.5180    -0.0680     0.7670 ns         1 4WS      -0.508900
      5 C28          1.6050    -1.1160     0.2770 c3         1 4WS       0.107000
      6 C27          0.0970    -0.7290     0.2650 c5         1 4WS       0.175500
      7 N21         -0.2980     0.3260    -0.7240 n3         1 4WS      -0.738600
      8 C26          0.0260     1.6850    -0.1870 c5         1 4WS       0.189800
      9 C25         -1.2650     2.5010    -0.4790 c5         1 4WS      -0.132400
     10 C21         -0.8460    -1.8860    -0.1970 c5         1 4WS       0.126300
     11 C22         -2.2100    -1.1220    -0.1510 c5         1 4WS       0.125300
     12 O22         -3.2600    -1.8150    -0.8500 oh         1 4WS      -0.652000
     13 C23         -1.7910     0.2390    -0.8280 c5         1 4WS       0.187500
     14 C24         -2.3560     1.4880    -0.0500 c5         1 4WS       0.151300
     15 O24         -2.4160     1.3780     1.3840 oh         1 4WS      -0.664000
     16 O21         -0.8240    -3.0400     0.6610 oh         1 4WS      -0.656000
     17 H3           4.8310     2.3020     0.0660 hc         1 4WS       0.057700
     18 H4           3.4490     2.4030     1.2360 hc         1 4WS       0.057700
     19 H5           4.6920     1.2780     1.5570 hc         1 4WS       0.057700
     20 H6           2.4950     0.1690     1.7520 hn         1 4WS       0.305500
     21 H8           1.8970    -1.4170    -0.7370 h1         1 4WS       0.069200
     22 H9           1.7290    -1.9940     0.9230 h1         1 4WS       0.069200
     23 H10         -0.1730    -0.4370     1.2910 h1         1 4WS       0.042700
     24 H12          0.2300     1.6750     0.8930 h1         1 4WS       0.042700
     25 H13          0.9040     2.1210    -0.6820 h1         1 4WS       0.042700
     26 H14         -1.3030     3.4390     0.0850 hc         1 4WS       0.058200
     27 H15         -1.3450     2.7560    -1.5420 hc         1 4WS       0.058200
     28 H16         -0.5990    -2.1790    -1.2280 h1         1 4WS       0.057700
     29 H17         -2.4990    -0.9810     0.8990 h1         1 4WS       0.068700
     30 H18         -3.5820    -2.5260    -0.2520 ho         1 4WS       0.445000
     31 H19         -2.1030     0.2710    -1.8820 h1         1 4WS       0.087700
     32 H20         -3.3430     1.7720    -0.4410 h1         1 4WS       0.053700
     33 H21         -2.7430     2.2410     1.7220 ho         1 4WS       0.444000
     34 H2          -1.2570    -3.7720     0.1670 ho         1 4WS       0.447000
@<TRIPOS>BOND
     1     1     2 2   
     2     2     3 1   
     3     2     4 1   
     4     3    17 1   
     5     3    18 1   
     6     3    19 1   
     7     4     5 1   
     8     4    20 1   
     9     5     6 1   
    10     5    21 1   
    11     5    22 1   
    12     6     7 1   
    13     6    10 1   
    14     6    23 1   
    15     7     8 1   
    16     7    13 1   
    17     8     9 1   
    18     8    24 1   
    19     8    25 1   
    20     9    14 1   
    21     9    26 1   
    22     9    27 1   
    23    10    11 1   
    24    10    16 1   
    25    10    28 1   
    26    11    12 1   
    27    11    13 1   
    28    11    29 1   
    29    12    30 1   
    30    13    14 1   
    31    13    31 1   
    32    14    15 1   
    33    14    32 1   
    34    15    33 1   
    35    16    34 1   
@<TRIPOS>SUBSTRUCTURE
     1 4WS         1 TEMP              0 ****  ****    0 ROOT
