@<TRIPOS>MOLECULE
4WS
   34    35     1     0     0
SMALL
bcc


@<TRIPOS>ATOM
      1 O25          3.2440     0.7070    -1.3490 o          1 4WS      -0.597100
      2 C29          3.2700     0.6870    -0.1260 c          1 4WS       0.668100
      3 C30          4.0970     1.6680     0.6680 c3         1 4WS      -0.183100
      4 N22          2.5540    -0.1750     0.6180 ns         1 4WS      -0.575900
      5 C28          1.6110    -1.1360     0.0970 c3         1 4WS       0.107000
      6 C27          0.1610    -0.7520     0.3590 c5         1 4WS       0.175500
      7 N21         -0.2930     0.3780    -0.4240 n3         1 4WS      -0.738600
      8 C26         -0.0350     1.7180     0.0790 c5         1 4WS       0.189800
      9 C25         -1.2560     2.5130    -0.3720 c5         1 4WS      -0.132400
     10 C21         -0.8100    -1.8540    -0.0510 c5         1 4WS       0.103100
     11 C22         -2.1400    -1.1040    -0.1240 c5         1 4WS       0.102100
     12 O22         -3.1310    -1.7180    -0.9120 oh         1 4WS      -0.589800
     13 C23         -1.7280     0.2330    -0.7270 c5         1 4WS       0.187500
     14 C24         -2.3930     1.5080    -0.2070 c5         1 4WS       0.128100
     15 O24         -2.7370     1.3360     1.1500 oh         1 4WS      -0.601800
     16 O21         -0.7750    -2.9130     0.8700 oh         1 4WS      -0.593800
     17 H3           5.0410     1.8580     0.1610 hc         1 4WS       0.057700
     18 H4           3.5610     2.6170     0.7300 hc         1 4WS       0.057700
     19 H5           4.3030     1.3350     1.6840 hc         1 4WS       0.057700
     20 H6           2.6380    -0.1170     1.6200 hn         1 4WS       0.305500
     21 H8           1.7730    -1.2410    -0.9750 h1         1 4WS       0.069200
     22 H9           1.8140    -2.1050     0.5610 h1         1 4WS       0.069200
     23 H10          0.0430    -0.5660     1.4440 h1         1 4WS       0.042700
     24 H12          0.0520     1.7300     1.1750 h1         1 4WS       0.042700
     25 H13          0.8890     2.1380    -0.3240 h1         1 4WS       0.042700
     26 H14         -1.4070     3.4340     0.1950 hc         1 4WS       0.058200
     27 H15         -1.1630     2.7890    -1.4250 hc         1 4WS       0.058200
     28 H16         -0.5470    -2.2000    -1.0620 h1         1 4WS       0.057700
     29 H17         -2.4930    -0.9640     0.9050 h1         1 4WS       0.068700
     30 H18         -3.5170    -2.4380    -0.4060 ho         1 4WS       0.406000
     31 H19         -1.8840     0.1920    -1.8130 h1         1 4WS       0.087700
     32 H20         -3.2720     1.7730    -0.8070 h1         1 4WS       0.053700
     33 H21         -2.9900     2.1930     1.5070 ho         1 4WS       0.405000
     34 H2          -1.1880    -3.6840     0.4710 ho         1 4WS       0.408000
@<TRIPOS>BOND
     1     1     2 2   
     2     2     3 1   
     3     2     4 1   
     4     3    17 1   
     5     3    18 1   
     6     3    19 1   
     7     4     5 1   
     8     4    20 1   
     9     5     6 1   
    10     5    21 1   
    11     5    22 1   
    12     6     7 1   
    13     6    10 1   
    14     6    23 1   
    15     7     8 1   
    16     7    13 1   
    17     8     9 1   
    18     8    24 1   
    19     8    25 1   
    20     9    14 1   
    21     9    26 1   
    22     9    27 1   
    23    10    11 1   
    24    10    16 1   
    25    10    28 1   
    26    11    12 1   
    27    11    13 1   
    28    11    29 1   
    29    12    30 1   
    30    13    14 1   
    31    13    31 1   
    32    14    15 1   
    33    14    32 1   
    34    15    33 1   
    35    16    34 1   
@<TRIPOS>SUBSTRUCTURE
     1 4WS         1 TEMP              0 ****  ****    0 ROOT
