@<TRIPOS>MOLECULE
4WT
   27    28     1     0     0
SMALL
No Charge or Current Charge


@<TRIPOS>ATOM
      1 CAH         -2.1280    -0.5670    -0.4500 c6         1 4WT       0.161800
      2 NAI         -1.6520    -1.7860     0.2360 n7         1 4WT      -0.855400
      3 CAG         -0.2850    -2.1430    -0.1960 c6         1 4WT       0.203100
      4 CAJ          0.6920    -0.9630    -0.0940 ca         1 4WT      -0.073300
      5 CAE          2.0740    -1.2320    -0.0640 ca         1 4WT      -0.111000
      6 CAC          3.0040    -0.1840     0.0250 ca         1 4WT      -0.111000
      7 CAD          2.5550     1.1420     0.0890 ca         1 4WT      -0.112000
      8 CAF          1.1790     1.4220     0.0570 ca         1 4WT      -0.107000
      9 CAK          0.2300     0.3790    -0.0480 ca         1 4WT      -0.052300
     10 CAL         -1.2900     0.6910    -0.0580 c6         1 4WT       0.002300
     11 CAB         -1.6250     1.8340    -1.0680 c3         1 4WT      -0.080100
     12 CAA         -1.7070     1.1830     1.3620 c3         1 4WT      -0.080100
     13 H1          -2.0660    -0.7270    -1.5370 h1         1 4WT       0.032200
     14 H2          -3.1870    -0.3990    -0.2070 h1         1 4WT       0.032200
     15 H3          -2.2780    -2.5680     0.0060 hn         1 4WT       0.413000
     16 H5           0.0810    -2.9790     0.4180 h1         1 4WT       0.037200
     17 H6          -0.3110    -2.4870    -1.2410 h1         1 4WT       0.037200
     18 H7           2.4290    -2.2590    -0.1090 ha         1 4WT       0.108000
     19 H8           4.0690    -0.4010     0.0490 ha         1 4WT       0.111000
     20 H9           3.2730     1.9560     0.1680 ha         1 4WT       0.111000
     21 H10          0.8580     2.4580     0.1250 ha         1 4WT       0.110000
     22 H11         -1.2620     1.5890    -2.0730 hc         1 4WT       0.036867
     23 H12         -2.7070     1.9950    -1.1390 hc         1 4WT       0.036867
     24 H13         -1.1780     2.7920    -0.7790 hc         1 4WT       0.036867
     25 H14         -1.1690     2.0950     1.6480 hc         1 4WT       0.036867
     26 H15         -2.7800     1.4060     1.4110 hc         1 4WT       0.036867
     27 H16         -1.4920     0.4250     2.1240 hc         1 4WT       0.036867
@<TRIPOS>BOND
     1     1     2 1   
     2     1    10 1   
     3     1    13 1   
     4     1    14 1   
     5     2     3 1   
     6     2    15 1   
     7     3     4 1   
     8     3    16 1   
     9     3    17 1   
    10     4     5 ar  
    11     4     9 ar  
    12     5     6 ar  
    13     5    18 1   
    14     6     7 ar  
    15     6    19 1   
    16     7     8 ar  
    17     7    20 1   
    18     8     9 ar  
    19     8    21 1   
    20     9    10 1   
    21    10    11 1   
    22    10    12 1   
    23    11    22 1   
    24    11    23 1   
    25    11    24 1   
    26    12    25 1   
    27    12    26 1   
    28    12    27 1   
@<TRIPOS>SUBSTRUCTURE
     1 4WT         1 TEMP              0 ****  ****    0 ROOT
