@<TRIPOS>MOLECULE
4WT
   27    28     1     0     0
SMALL
bcc


@<TRIPOS>ATOM
      1 CAH         -2.0650    -0.5480    -0.4750 c6         1 4WT       0.161800
      2 NAI         -1.6140    -1.7050     0.2660 n7         1 4WT      -0.800200
      3 CAG         -0.2970    -2.1020    -0.1770 c6         1 4WT       0.203100
      4 CAJ          0.6650    -0.9470    -0.0910 ca         1 4WT      -0.073300
      5 CAE          2.0360    -1.2070    -0.0760 ca         1 4WT      -0.129000
      6 CAC          2.9600    -0.1790    -0.0010 ca         1 4WT      -0.129000
      7 CAD          2.5120     1.1350     0.0690 ca         1 4WT      -0.130000
      8 CAF          1.1530     1.3990     0.0520 ca         1 4WT      -0.125000
      9 CAK          0.2100     0.3720    -0.0410 ca         1 4WT      -0.052300
     10 CAL         -1.2780     0.6970    -0.0530 c6         1 4WT       0.002300
     11 CAB         -1.5930     1.8130    -1.0520 c3         1 4WT      -0.080100
     12 CAA         -1.7070     1.1270     1.3540 c3         1 4WT      -0.080100
     13 H1          -1.9640    -0.6830    -1.5660 h1         1 4WT       0.032200
     14 H2          -3.1270    -0.3850    -0.2740 h1         1 4WT       0.032200
     15 H3          -2.2590    -2.4720     0.1370 hn         1 4WT       0.357800
     16 H5           0.0640    -2.9240     0.4460 h1         1 4WT       0.037200
     17 H6          -0.2960    -2.4780    -1.2150 h1         1 4WT       0.037200
     18 H7           2.3790    -2.2350    -0.1170 ha         1 4WT       0.126000
     19 H8           4.0200    -0.3980     0.0130 ha         1 4WT       0.129000
     20 H9           3.2210     1.9510     0.1380 ha         1 4WT       0.129000
     21 H10          0.8180     2.4280     0.1120 ha         1 4WT       0.128000
     22 H11         -1.2360     1.5630    -2.0530 hc         1 4WT       0.036867
     23 H12         -2.6720     1.9690    -1.1100 hc         1 4WT       0.036867
     24 H13         -1.1450     2.7650    -0.7640 hc         1 4WT       0.036867
     25 H14         -1.1290     1.9860     1.6980 hc         1 4WT       0.036867
     26 H15         -2.7620     1.4120     1.3630 hc         1 4WT       0.036867
     27 H16         -1.5670     0.3170     2.0690 hc         1 4WT       0.036867
@<TRIPOS>BOND
     1     1     2 1   
     2     1    10 1   
     3     1    13 1   
     4     1    14 1   
     5     2     3 1   
     6     2    15 1   
     7     3     4 1   
     8     3    16 1   
     9     3    17 1   
    10     4     5 ar  
    11     4     9 ar  
    12     5     6 ar  
    13     5    18 1   
    14     6     7 ar  
    15     6    19 1   
    16     7     8 ar  
    17     7    20 1   
    18     8     9 ar  
    19     8    21 1   
    20     9    10 1   
    21    10    11 1   
    22    10    12 1   
    23    11    22 1   
    24    11    23 1   
    25    11    24 1   
    26    12    25 1   
    27    12    26 1   
    28    12    27 1   
@<TRIPOS>SUBSTRUCTURE
     1 4WT         1 TEMP              0 ****  ****    0 ROOT
