@<TRIPOS>MOLECULE
4WU
   23    24     1     0     0
SMALL
No Charge or Current Charge


@<TRIPOS>ATOM
      1 CAF         -1.7310     1.4150     0.0210 c6         1 4WU      -0.031100
      2 CAE         -2.7080     0.2720    -0.3290 c6         1 4WU       0.160800
      3 NAH         -2.3480    -0.9550     0.4070 n7         1 4WU      -0.856400
      4 CAG         -1.0210    -1.4770     0.0050 c6         1 4WU       0.211100
      5 CAK          0.0820    -0.4020     0.0220 ca         1 4WU      -0.132300
      6 CAJ         -0.2640     0.9730     0.0110 ca         1 4WU      -0.026300
      7 CAD          0.7470     1.9520     0.0150 ca         1 4WU      -0.153000
      8 CAB          2.0980     1.5770     0.0170 ca         1 4WU      -0.071000
      9 CAC          2.4430     0.2170     0.0130 ca         1 4WU      -0.181000
     10 CAI          1.4480    -0.7720     0.0130 ca         1 4WU       0.285000
     11 NAA          1.8440    -2.0870    -0.0050 nv         1 4WU      -1.067000
     12 H1          -1.8820     2.2480    -0.6780 hc         1 4WU       0.055700
     13 H2          -1.9760     1.8020     1.0190 hc         1 4WU       0.055700
     14 H3          -3.7350     0.5740    -0.0760 h1         1 4WU       0.030700
     15 H4          -2.6730     0.0730    -1.4110 h1         1 4WU       0.030700
     16 H5          -3.0520    -1.6800     0.2180 hn         1 4WU       0.411000
     17 H7          -0.7520    -2.3030     0.6800 h1         1 4WU       0.033700
     18 H8          -1.0900    -1.8900    -1.0130 h1         1 4WU       0.033700
     19 H9           0.4830     3.0070     0.0170 ha         1 4WU       0.111000
     20 H10          2.8750     2.3380     0.0180 ha         1 4WU       0.110000
     21 H11          3.4930    -0.0650     0.0100 ha         1 4WU       0.110000
     22 H12          2.8270    -2.3200    -0.1260 hn         1 4WU       0.440000
     23 H13          1.1610    -2.8290    -0.1320 hn         1 4WU       0.440000
@<TRIPOS>BOND
     1     1     2 1   
     2     1     6 1   
     3     1    12 1   
     4     1    13 1   
     5     2     3 1   
     6     2    14 1   
     7     2    15 1   
     8     3     4 1   
     9     3    16 1   
    10     4     5 1   
    11     4    17 1   
    12     4    18 1   
    13     5     6 ar  
    14     5    10 ar  
    15     6     7 ar  
    16     7     8 ar  
    17     7    19 1   
    18     8     9 ar  
    19     8    20 1   
    20     9    10 ar  
    21     9    21 1   
    22    10    11 1   
    23    11    22 1   
    24    11    23 1   
@<TRIPOS>SUBSTRUCTURE
     1 4WU         1 TEMP              0 ****  ****    0 ROOT
