@<TRIPOS>MOLECULE
4WU
   23    24     1     0     0
SMALL
bcc


@<TRIPOS>ATOM
      1 CAF         -1.7220     1.3940     0.0210 c6         1 4WU      -0.031100
      2 CAE         -2.6330     0.2490    -0.3820 c6         1 4WU       0.160800
      3 NAH         -2.2990    -0.9040     0.4290 n7         1 4WU      -0.801200
      4 CAG         -1.0040    -1.4460     0.0750 c6         1 4WU       0.211100
      5 CAK          0.0600    -0.3810     0.0500 ca         1 4WU      -0.132300
      6 CAJ         -0.2750     0.9720     0.0340 ca         1 4WU      -0.026300
      7 CAD          0.7300     1.9400     0.0280 ca         1 4WU      -0.171000
      8 CAB          2.0610     1.5580     0.0310 ca         1 4WU      -0.089000
      9 CAC          2.4050     0.2150     0.0190 ca         1 4WU      -0.199000
     10 CAI          1.4130    -0.7670     0.0200 ca         1 4WU       0.146600
     11 NAA          1.7550    -2.1090     0.0540 nv         1 4WU      -0.818200
     12 H1          -1.8540     2.2400    -0.6570 hc         1 4WU       0.055700
     13 H2          -2.0070     1.7460     1.0180 hc         1 4WU       0.055700
     14 H3          -3.6750     0.5200    -0.2040 h1         1 4WU       0.030700
     15 H4          -2.5300     0.0560    -1.4620 h1         1 4WU       0.030700
     16 H5          -2.9990    -1.6250     0.3180 hn         1 4WU       0.355800
     17 H7          -0.7360    -2.2120     0.8100 h1         1 4WU       0.033700
     18 H8          -1.0160    -1.9570    -0.9050 h1         1 4WU       0.033700
     19 H9           0.4640     2.9900     0.0160 ha         1 4WU       0.129000
     20 H10          2.8410     2.3080     0.0270 ha         1 4WU       0.128000
     21 H11          3.4490    -0.0780     0.0040 ha         1 4WU       0.128000
     22 H12          2.7110    -2.3030    -0.2000 hn         1 4WU       0.384800
     23 H13          1.1300    -2.7360    -0.4290 hn         1 4WU       0.384800
@<TRIPOS>BOND
     1     1     2 1   
     2     1     6 1   
     3     1    12 1   
     4     1    13 1   
     5     2     3 1   
     6     2    14 1   
     7     2    15 1   
     8     3     4 1   
     9     3    16 1   
    10     4     5 1   
    11     4    17 1   
    12     4    18 1   
    13     5     6 ar  
    14     5    10 ar  
    15     6     7 ar  
    16     7     8 ar  
    17     7    19 1   
    18     8     9 ar  
    19     8    20 1   
    20     9    10 ar  
    21     9    21 1   
    22    10    11 1   
    23    11    22 1   
    24    11    23 1   
@<TRIPOS>SUBSTRUCTURE
     1 4WU         1 TEMP              0 ****  ****    0 ROOT
