@<TRIPOS>MOLECULE
4WZ
   54    54     1     0     0
SMALL
bcc


@<TRIPOS>ATOM
      1 C1           1.2290    -0.1590     0.4440 c6         1 4WZ       0.193600
      2 C2           1.1520    -1.6480     0.1070 c6         1 4WZ       0.185100
      3 C3          -0.1760    -2.1980     0.6380 c6         1 4WZ       0.200100
      4 C4          -1.3450    -1.4950    -0.0640 c6         1 4WZ       0.185100
      5 C5          -1.2750    -0.0010     0.3090 c6         1 4WZ       0.193600
      6 C6           0.0540     0.6320    -0.1420 c6         1 4WZ       0.214100
      7 O55         -4.8950     4.7680     0.7640 o          1 4WZ      -1.026167
      8 PB5         -5.4190     3.8000    -0.3050 p5         1 4WZ       1.213700
      9 O65         -6.6370     2.9870     0.1610 o          1 4WZ      -1.026167
     10 O75         -5.6500     4.4820    -1.6680 o          1 4WZ      -1.026167
     11 CB5         -4.0620     2.5900    -0.6640 c3         1 4WZ      -0.490300
     12 O25         -4.6010     0.4720     1.0070 o          1 4WZ      -0.925750
     13 O35         -2.8690     2.1720     1.8030 o          1 4WZ      -0.925750
     14 O15         -2.3390     0.7040    -0.2580 os         1 4WZ      -0.539700
     15 O16          0.1160     1.9640     0.2680 os         1 4WZ      -0.570200
     16 PA6          0.3070     3.2450    -0.8060 p5         1 4WZ       1.339900
     17 O46          1.7260     3.1750    -1.3760 o          1 4WZ      -0.983500
     18 O36         -0.7510     3.0880    -1.9010 o          1 4WZ      -0.983500
     19 O26          0.0900     4.4430     0.1210 o          1 4WZ      -0.983500
     20 O14         -2.5720    -2.0360     0.3120 os         1 4WZ      -0.560200
     21 PA4         -3.5920    -2.6870    -0.8550 p5         1 4WZ       1.346400
     22 O24         -2.8260    -3.8420    -1.5040 o          1 4WZ      -0.993500
     23 O44         -4.7780    -3.1490    -0.0040 o          1 4WZ      -0.993500
     24 O34         -3.9210    -1.5870    -1.8650 o          1 4WZ      -0.993500
     25 O13         -0.2450    -3.5840     0.5110 os         1 4WZ      -0.525200
     26 PA3         -0.0150    -4.5180     1.8810 p5         1 4WZ       1.330900
     27 O43          1.2720    -4.0330     2.5510 o          1 4WZ      -1.001833
     28 O33         -1.2440    -4.3130     2.7720 o          1 4WZ      -1.001833
     29 O23          0.0800    -5.9260     1.2880 o          1 4WZ      -1.001833
     30 O12          1.2420    -1.8450    -1.2820 os         1 4WZ      -0.560200
     31 PA2          2.5380    -2.6020    -2.0410 p5         1 4WZ       1.346400
     32 O42          3.1030    -3.6350    -1.0710 o          1 4WZ      -0.993500
     33 O22          1.8440    -3.2160    -3.2650 o          1 4WZ      -0.993500
     34 O32          3.5310    -1.5080    -2.4340 o          1 4WZ      -0.993500
     35 O11          2.4210     0.3980    -0.0240 os         1 4WZ      -0.539700
     36 PA1          3.7220     0.6300     0.9510 p5         1 4WZ       1.354100
     37 O21          3.3810     1.6500     2.0190 o          1 4WZ      -0.925750
     38 O31          4.2250    -0.7020     1.4660 o          1 4WZ      -0.925750
     39 CB1          4.7950     1.3330    -0.3310 c3         1 4WZ      -0.490300
     40 PB1          6.4460     2.0260     0.1560 p5         1 4WZ       1.213700
     41 O61          6.1630     3.2590     1.0270 o          1 4WZ      -1.026167
     42 O71          7.1920     0.9120     0.9030 o          1 4WZ      -1.026167
     43 O51          7.1130     2.3940    -1.1860 o          1 4WZ      -1.026167
     44 H1           1.1560    -0.0730     1.5430 h1         1 4WZ      -0.030800
     45 H2           1.9640    -2.1620     0.6270 h1         1 4WZ       0.050200
     46 H3          -0.2290    -1.9110     1.7030 h1         1 4WZ      -0.035300
     47 H4          -1.1970    -1.5910    -1.1460 h1         1 4WZ       0.050200
     48 H5          -1.3130     0.0690     1.4100 h1         1 4WZ      -0.030800
     49 H6           0.1060     0.5500    -1.2380 h1         1 4WZ       0.042700
     50 H9          -4.3840     1.9600    -1.5030 hc         1 4WZ       0.083950
     51 H10         -3.1630     3.1080    -1.0090 hc         1 4WZ       0.083950
     52 H21          4.9160     0.5440    -1.0810 hc         1 4WZ       0.083950
     53 H22          4.1990     2.1110    -0.8190 hc         1 4WZ       0.083950
     54 PA5         -3.5100     1.4510     0.6370 p5         1 4WZ       1.354100
@<TRIPOS>BOND
     1     1     2 1   
     2     1     6 1   
     3     1    35 1   
     4     1    44 1   
     5     2     3 1   
     6     2    30 1   
     7     2    45 1   
     8     3     4 1   
     9     3    25 1   
    10     3    46 1   
    11     4     5 1   
    12     4    20 1   
    13     4    47 1   
    14     5     6 1   
    15     5    14 1   
    16     5    48 1   
    17     6    15 1   
    18     6    49 1   
    19     7     8 1   
    20     8     9 1   
    21     8    10 1   
    22     8    11 1   
    23    11    50 1   
    24    11    51 1   
    25    11    54 1   
    26    12    54 1   
    27    13    54 1   
    28    14    54 1   
    29    15    16 1   
    30    16    17 1   
    31    16    18 1   
    32    16    19 1   
    33    20    21 1   
    34    21    22 1   
    35    21    23 1   
    36    21    24 1   
    37    25    26 1   
    38    26    27 1   
    39    26    28 1   
    40    26    29 1   
    41    30    31 1   
    42    31    32 1   
    43    31    33 1   
    44    31    34 1   
    45    35    36 1   
    46    36    37 1   
    47    36    38 1   
    48    36    39 1   
    49    39    40 1   
    50    39    52 1   
    51    39    53 1   
    52    40    41 1   
    53    40    42 1   
    54    40    43 1   
@<TRIPOS>SUBSTRUCTURE
     1 4WZ         1 TEMP              0 ****  ****    0 ROOT
