@<TRIPOS>MOLECULE
4WZ
   54    54     1     0     0
SMALL
No Charge or Current Charge


@<TRIPOS>ATOM
      1 C1           1.3580    -0.0490     0.1940 c6         1 4WZ       0.216800
      2 C2           1.2390    -1.5680    -0.2120 c6         1 4WZ       0.208300
      3 C3          -0.1280    -2.1030     0.3530 c6         1 4WZ       0.223300
      4 C4          -1.3330    -1.3220    -0.3050 c6         1 4WZ       0.208300
      5 C5          -1.1790     0.2140     0.0470 c6         1 4WZ       0.216800
      6 C6           0.1990     0.7680    -0.5040 c6         1 4WZ       0.237300
      7 O55         -4.4350     4.8340     0.0830 o          1 4WZ      -1.026167
      8 PB5         -5.2760     3.6590     0.4310 p5         1 4WZ       1.371500
      9 O65         -5.5530     3.5680     1.8890 o          1 4WZ      -1.026167
     10 O75         -6.5700     3.8050    -0.2910 o          1 4WZ      -1.026167
     11 CB5         -4.5920     2.1880    -0.2120 c3         1 4WZ      -0.805900
     12 O25         -3.7210     0.7090     1.8010 o          1 4WZ      -0.925750
     13 O35         -2.4820     2.8340     1.4820 o          1 4WZ      -0.925750
     14 O15         -2.3310     1.0090    -0.3460 os         1 4WZ      -0.562900
     15 O16          0.3430     2.2050    -0.3250 os         1 4WZ      -0.593400
     16 PA6          0.4240     3.1490    -1.6380 p5         1 4WZ       1.339900
     17 O46          1.5980     2.7900    -2.4810 o          1 4WZ      -0.983500
     18 O36         -0.8050     3.0240    -2.4690 o          1 4WZ      -0.983500
     19 O26          0.5630     4.5710    -1.2130 o          1 4WZ      -0.983500
     20 O14         -2.6280    -1.8600     0.0940 os         1 4WZ      -0.583400
     21 PA4         -3.6100    -2.5180    -1.0130 p5         1 4WZ       1.346400
     22 O24         -2.9900    -3.7150    -1.6470 o          1 4WZ      -0.993500
     23 O44         -4.8740    -2.9490    -0.3510 o          1 4WZ      -0.993500
     24 O34         -3.9490    -1.5380    -2.0810 o          1 4WZ      -0.993500
     25 O13         -0.2470    -3.5490     0.2810 os         1 4WZ      -0.548400
     26 PA3          0.0260    -4.4460     1.5990 p5         1 4WZ       1.330900
     27 O43          1.4080    -4.2400     2.1110 o          1 4WZ      -1.001833
     28 O33         -0.9430    -4.1130     2.6820 o          1 4WZ      -1.001833
     29 O23         -0.1370    -5.8900     1.2640 o          1 4WZ      -1.001833
     30 O12          1.3090    -1.7300    -1.6590 os         1 4WZ      -0.583400
     31 PA2          2.4480    -2.6160    -2.3870 p5         1 4WZ       1.346400
     32 O42          2.3960    -4.0370    -1.9500 o          1 4WZ      -0.993500
     33 O22          2.2060    -2.5760    -3.8560 o          1 4WZ      -0.993500
     34 O32          3.8060    -2.0670    -2.1280 o          1 4WZ      -0.993500
     35 O11          2.6970     0.5060     0.0380 os         1 4WZ      -0.562900
     36 PA1          3.7100     0.3680     1.2990 p5         1 4WZ       1.511900
     37 O21          3.3350     1.2390     2.4570 o          1 4WZ      -0.925750
     38 O31          3.8070    -1.0600     1.7310 o          1 4WZ      -0.925750
     39 CB1          5.2780     0.6980     0.5420 c3         1 4WZ      -0.805900
     40 PB1          5.6950     2.3730     0.7810 p5         1 4WZ       1.371500
     41 O61          4.5950     3.3120     0.4490 o          1 4WZ      -1.026167
     42 O71          6.1980     2.5590     2.1690 o          1 4WZ      -1.026167
     43 O51          6.8380     2.6080    -0.1440 o          1 4WZ      -1.026167
     44 H1           1.1380    -0.0050     1.2720 h1         1 4WZ      -0.030800
     45 H2           2.0540    -2.1370     0.2540 h1         1 4WZ       0.050200
     46 H3          -0.1420    -1.8340     1.4200 h1         1 4WZ      -0.035300
     47 H4          -1.2420    -1.4180    -1.3970 h1         1 4WZ       0.050200
     48 H5          -1.1070     0.2700     1.1440 h1         1 4WZ      -0.030800
     49 H6           0.2310     0.5490    -1.5810 h1         1 4WZ       0.042700
     50 H9          -5.3290     1.3890    -0.2050 hc         1 4WZ       0.083950
     51 H10         -4.2420     2.3700    -1.2250 hc         1 4WZ       0.083950
     52 H21          6.0380     0.0690     0.9980 hc         1 4WZ       0.083950
     53 H22          5.2030     0.4820    -0.5220 hc         1 4WZ       0.083950
     54 PA5         -3.2220     1.7190     0.8140 p5         1 4WZ       1.511900
@<TRIPOS>BOND
     1     1     2 1   
     2     1     6 1   
     3     1    35 1   
     4     1    44 1   
     5     2     3 1   
     6     2    30 1   
     7     2    45 1   
     8     3     4 1   
     9     3    25 1   
    10     3    46 1   
    11     4     5 1   
    12     4    20 1   
    13     4    47 1   
    14     5     6 1   
    15     5    14 1   
    16     5    48 1   
    17     6    15 1   
    18     6    49 1   
    19     7     8 1   
    20     8     9 1   
    21     8    10 1   
    22     8    11 1   
    23    11    50 1   
    24    11    51 1   
    25    11    54 1   
    26    12    54 1   
    27    13    54 1   
    28    14    54 1   
    29    15    16 1   
    30    16    17 1   
    31    16    18 1   
    32    16    19 1   
    33    20    21 1   
    34    21    22 1   
    35    21    23 1   
    36    21    24 1   
    37    25    26 1   
    38    26    27 1   
    39    26    28 1   
    40    26    29 1   
    41    30    31 1   
    42    31    32 1   
    43    31    33 1   
    44    31    34 1   
    45    35    36 1   
    46    36    37 1   
    47    36    38 1   
    48    36    39 1   
    49    39    40 1   
    50    39    52 1   
    51    39    53 1   
    52    40    41 1   
    53    40    42 1   
    54    40    43 1   
@<TRIPOS>SUBSTRUCTURE
     1 4WZ         1 TEMP              0 ****  ****    0 ROOT
