@<TRIPOS>MOLECULE
4X1
   32    33     1     0     0
SMALL
No Charge or Current Charge


@<TRIPOS>ATOM
      1 CAJ          0.0100     1.9350     0.3620 c6         1 4X1       0.168800
      2 CAH         -1.4000     1.9680    -0.2710 c6         1 4X1      -0.029100
      3 CAL         -2.1470     0.6390    -0.1430 ca         1 4X1      -0.064300
      4 CAD         -3.5350     0.5870    -0.3710 ca         1 4X1      -0.110000
      5 CAB         -4.2240    -0.6330    -0.2720 ca         1 4X1      -0.109000
      6 CAC         -3.5260    -1.8080     0.0530 ca         1 4X1      -0.111000
      7 CAE         -2.1390    -1.7620     0.2770 ca         1 4X1      -0.108000
      8 CAM         -1.4420    -0.5420     0.1770 ca         1 4X1      -0.074300
      9 CAK          0.0700    -0.5080     0.4410 c6         1 4X1       0.209100
     10 NAN          0.7610     0.7210    -0.0490 n3         1 4X1      -0.711600
     11 CAI          2.1920     0.7910     0.3410 c3         1 4X1       0.169800
     12 CAG          3.0790    -0.3370    -0.2330 c3         1 4X1      -0.080400
     13 CAF          4.5720    -0.1230     0.0820 c3         1 4X1       0.148800
     14 NAA          5.4080    -1.2040    -0.4760 n8         1 4X1      -0.993200
     15 H1           0.5490     2.8460     0.0600 h1         1 4X1       0.032200
     16 H2          -0.0870     1.9650     1.4580 h1         1 4X1       0.032200
     17 H3          -1.9840     2.7770     0.1870 hc         1 4X1       0.055200
     18 H4          -1.3070     2.2190    -1.3360 hc         1 4X1       0.055200
     19 H5          -4.0800     1.4930    -0.6270 ha         1 4X1       0.109000
     20 H6          -5.2970    -0.6690    -0.4480 ha         1 4X1       0.111000
     21 H7          -4.0580    -2.7530     0.1310 ha         1 4X1       0.111000
     22 H8          -1.6050    -2.6760     0.5300 ha         1 4X1       0.109000
     23 H9           0.2210    -0.6130     1.5260 h1         1 4X1       0.040700
     24 H10          0.5120    -1.3990    -0.0270 h1         1 4X1       0.040700
     25 H12          2.6090     1.7460    -0.0070 h1         1 4X1       0.027200
     26 H13          2.2810     0.7850     1.4370 h1         1 4X1       0.027200
     27 H14          2.7640    -1.3020     0.1790 hc         1 4X1       0.055200
     28 H15          2.9400    -0.3820    -1.3200 hc         1 4X1       0.055200
     29 H16          4.9060     0.8330    -0.3450 h1         1 4X1       0.025700
     30 H17          4.7200    -0.0900     1.1700 h1         1 4X1       0.025700
     31 H18          6.3840    -1.0500    -0.1960 hn         1 4X1       0.391500
     32 H19          5.1620    -2.0890    -0.0150 hn         1 4X1       0.391500
@<TRIPOS>BOND
     1     1     2 1   
     2     1    10 1   
     3     1    15 1   
     4     1    16 1   
     5     2     3 1   
     6     2    17 1   
     7     2    18 1   
     8     3     4 ar  
     9     3     8 ar  
    10     4     5 ar  
    11     4    19 1   
    12     5     6 ar  
    13     5    20 1   
    14     6     7 ar  
    15     6    21 1   
    16     7     8 ar  
    17     7    22 1   
    18     8     9 1   
    19     9    10 1   
    20     9    23 1   
    21     9    24 1   
    22    10    11 1   
    23    11    12 1   
    24    11    25 1   
    25    11    26 1   
    26    12    13 1   
    27    12    27 1   
    28    12    28 1   
    29    13    14 1   
    30    13    29 1   
    31    13    30 1   
    32    14    31 1   
    33    14    32 1   
@<TRIPOS>SUBSTRUCTURE
     1 4X1         1 TEMP              0 ****  ****    0 ROOT
