@<TRIPOS>MOLECULE
4X1
   32    33     1     0     0
SMALL
bcc


@<TRIPOS>ATOM
      1 CAJ          0.0170     1.8840     0.3970 c6         1 4X1       0.168800
      2 CAH         -1.3300     1.9380    -0.3000 c6         1 4X1      -0.029100
      3 CAL         -2.0750     0.6390    -0.1680 ca         1 4X1      -0.064300
      4 CAD         -3.4460     0.5720    -0.4160 ca         1 4X1      -0.128000
      5 CAB         -4.1360    -0.6240    -0.3040 ca         1 4X1      -0.127000
      6 CAC         -3.4530    -1.7790     0.0630 ca         1 4X1      -0.129000
      7 CAE         -2.0910    -1.7200     0.3100 ca         1 4X1      -0.126000
      8 CAM         -1.3920    -0.5200     0.1960 ca         1 4X1      -0.074300
      9 CAK          0.0840    -0.4940     0.4950 c6         1 4X1       0.209100
     10 NAN          0.7400     0.6940    -0.0120 n3         1 4X1      -0.711600
     11 CAI          2.1360     0.7520     0.3830 c3         1 4X1       0.169800
     12 CAG          3.0000    -0.3340    -0.2450 c3         1 4X1      -0.080400
     13 CAF          4.4740    -0.1200     0.0690 c3         1 4X1       0.148800
     14 NAA          5.2880    -1.1770    -0.5150 n8         1 4X1      -0.882800
     15 H1           0.6020     2.7640     0.1220 h1         1 4X1       0.032200
     16 H2          -0.1220     1.9240     1.4920 h1         1 4X1       0.032200
     17 H3          -1.9250     2.7570     0.1090 hc         1 4X1       0.055200
     18 H4          -1.1770     2.1640    -1.3600 hc         1 4X1       0.055200
     19 H5          -3.9760     1.4750    -0.6980 ha         1 4X1       0.127000
     20 H6          -5.2000    -0.6580    -0.4970 ha         1 4X1       0.129000
     21 H7          -3.9800    -2.7200     0.1530 ha         1 4X1       0.129000
     22 H8          -1.5580    -2.6210     0.5930 ha         1 4X1       0.127000
     23 H9           0.2250    -0.5940     1.5880 h1         1 4X1       0.040700
     24 H10          0.5430    -1.3800     0.0510 h1         1 4X1       0.040700
     25 H12          2.5240     1.7250     0.0670 h1         1 4X1       0.027200
     26 H13          2.2470     0.7170     1.4810 h1         1 4X1       0.027200
     27 H14          2.7060    -1.3220     0.1200 hc         1 4X1       0.055200
     28 H15          2.8520    -0.3370    -1.3280 hc         1 4X1       0.055200
     29 H16          4.7970     0.8330    -0.3580 h1         1 4X1       0.025700
     30 H17          4.5960    -0.0240     1.1580 h1         1 4X1       0.025700
     31 H18          6.2640    -0.9980    -0.3180 hn         1 4X1       0.336300
     32 H19          5.0760    -2.0540    -0.0530 hn         1 4X1       0.336300
@<TRIPOS>BOND
     1     1     2 1   
     2     1    10 1   
     3     1    15 1   
     4     1    16 1   
     5     2     3 1   
     6     2    17 1   
     7     2    18 1   
     8     3     4 ar  
     9     3     8 ar  
    10     4     5 ar  
    11     4    19 1   
    12     5     6 ar  
    13     5    20 1   
    14     6     7 ar  
    15     6    21 1   
    16     7     8 ar  
    17     7    22 1   
    18     8     9 1   
    19     9    10 1   
    20     9    23 1   
    21     9    24 1   
    22    10    11 1   
    23    11    12 1   
    24    11    25 1   
    25    11    26 1   
    26    12    13 1   
    27    12    27 1   
    28    12    28 1   
    29    13    14 1   
    30    13    29 1   
    31    13    30 1   
    32    14    31 1   
    33    14    32 1   
@<TRIPOS>SUBSTRUCTURE
     1 4X1         1 TEMP              0 ****  ****    0 ROOT
