@<TRIPOS>MOLECULE
4X3
   29    30     1     0     0
SMALL
No Charge or Current Charge


@<TRIPOS>ATOM
      1 CAH          1.3530     1.5130     0.5250 c6         1 4X3       0.167800
      2 CAG         -0.1020     1.7270     0.0460 c6         1 4X3      -0.023100
      3 CAL         -0.9490     0.4420     0.0440 ca         1 4X3      -0.119300
      4 CAJ         -2.3580     0.4900    -0.0830 ca         1 4X3       0.284000
      5 NAB         -3.0290     1.6810    -0.2030 nv         1 4X3      -1.068000
      6 CAD         -3.1020    -0.6990    -0.0950 ca         1 4X3      -0.180000
      7 CAC         -2.4590    -1.9420     0.0120 ca         1 4X3      -0.072000
      8 CAE         -1.0620    -1.9960     0.1270 ca         1 4X3      -0.152000
      9 CAK         -0.3000    -0.8120     0.1390 ca         1 4X3      -0.037300
     10 CAI          1.2280    -0.9080     0.2740 c6         1 4X3       0.206100
     11 NAM          1.9690     0.3250    -0.1170 n3         1 4X3      -0.712600
     12 CAF          3.4270     0.2440     0.1400 c3         1 4X3       0.168800
     13 CAA          4.1600    -0.8540    -0.6590 c3         1 4X3      -0.091100
     14 H1           1.9320     2.4210     0.2980 h1         1 4X3       0.032200
     15 H2           1.3580     1.3940     1.6190 h1         1 4X3       0.032200
     16 H3          -0.5660     2.4940     0.6820 hc         1 4X3       0.050200
     17 H4          -0.0820     2.1390    -0.9720 hc         1 4X3       0.050200
     18 H5          -2.5060     2.5400    -0.3550 hn         1 4X3       0.441500
     19 H6          -4.0190     1.6830    -0.4400 hn         1 4X3       0.441500
     20 H7          -4.1840    -0.6650    -0.1890 ha         1 4X3       0.109000
     21 H8          -3.0420    -2.8600     0.0020 ha         1 4X3       0.109000
     22 H9          -0.5690    -2.9620     0.2070 ha         1 4X3       0.111000
     23 H10          1.4530    -1.1630     1.3210 h1         1 4X3       0.041200
     24 H11          1.5650    -1.7580    -0.3360 h1         1 4X3       0.041200
     25 H13          3.8930     1.2030    -0.1240 h1         1 4X3       0.028200
     26 H14          3.6130     0.0820     1.2100 h1         1 4X3       0.028200
     27 H15          3.9590    -0.7500    -1.7320 hc         1 4X3       0.037367
     28 H16          5.2420    -0.7720    -0.5040 hc         1 4X3       0.037367
     29 H17          3.8500    -1.8550    -0.3380 hc         1 4X3       0.037367
@<TRIPOS>BOND
     1     1     2 1   
     2     1    11 1   
     3     1    14 1   
     4     1    15 1   
     5     2     3 1   
     6     2    16 1   
     7     2    17 1   
     8     3     4 ar  
     9     3     9 ar  
    10     4     5 1   
    11     4     6 ar  
    12     5    18 1   
    13     5    19 1   
    14     6     7 ar  
    15     6    20 1   
    16     7     8 ar  
    17     7    21 1   
    18     8     9 ar  
    19     8    22 1   
    20     9    10 1   
    21    10    11 1   
    22    10    23 1   
    23    10    24 1   
    24    11    12 1   
    25    12    13 1   
    26    12    25 1   
    27    12    26 1   
    28    13    27 1   
    29    13    28 1   
    30    13    29 1   
@<TRIPOS>SUBSTRUCTURE
     1 4X3         1 TEMP              0 ****  ****    0 ROOT
