@<TRIPOS>MOLECULE
4X3
   29    30     1     0     0
SMALL
bcc


@<TRIPOS>ATOM
      1 CAH          1.3230     1.4560     0.5840 c6         1 4X3       0.167800
      2 CAG         -0.0870     1.7010     0.0770 c6         1 4X3      -0.023100
      3 CAL         -0.8970     0.4350     0.0460 ca         1 4X3      -0.119300
      4 CAJ         -2.2970     0.4950    -0.0980 ca         1 4X3       0.145600
      5 NAB         -2.9350     1.7200    -0.1860 nv         1 4X3      -0.819200
      6 CAD         -3.0360    -0.6890    -0.0890 ca         1 4X3      -0.198000
      7 CAC         -2.3990    -1.9130     0.0480 ca         1 4X3      -0.090000
      8 CAE         -1.0200    -1.9760     0.1640 ca         1 4X3      -0.170000
      9 CAK         -0.2710    -0.8000     0.1600 ca         1 4X3      -0.037300
     10 CAI          1.2260    -0.8950     0.3040 c6         1 4X3       0.206100
     11 NAM          1.9100     0.3170    -0.0930 n3         1 4X3      -0.712600
     12 CAF          3.3420     0.2360     0.1410 c3         1 4X3       0.168800
     13 CAA          4.0400    -0.8110    -0.7120 c3         1 4X3      -0.091100
     14 H1           1.9360     2.3380     0.3920 h1         1 4X3       0.032200
     15 H2           1.3070     1.3130     1.6790 h1         1 4X3       0.032200
     16 H3          -0.5710     2.4450     0.7170 hc         1 4X3       0.050200
     17 H4          -0.0370     2.1440    -0.9240 hc         1 4X3       0.050200
     18 H5          -2.4240     2.4480    -0.6600 hn         1 4X3       0.386300
     19 H6          -3.8830     1.6750    -0.5240 hn         1 4X3       0.386300
     20 H7          -4.1140    -0.6460    -0.1930 ha         1 4X3       0.127000
     21 H8          -2.9870    -2.8220     0.0490 ha         1 4X3       0.127000
     22 H9          -0.5220    -2.9340     0.2560 ha         1 4X3       0.129000
     23 H10          1.4620    -1.1630     1.3510 h1         1 4X3       0.041200
     24 H11          1.5790    -1.7310    -0.3050 h1         1 4X3       0.041200
     25 H13          3.7660     1.2150    -0.0940 h1         1 4X3       0.028200
     26 H14          3.5660     0.0470     1.2050 h1         1 4X3       0.028200
     27 H15          3.8040    -0.6730    -1.7680 hc         1 4X3       0.037367
     28 H16          5.1200    -0.7210    -0.5940 hc         1 4X3       0.037367
     29 H17          3.7710    -1.8300    -0.4340 hc         1 4X3       0.037367
@<TRIPOS>BOND
     1     1     2 1   
     2     1    11 1   
     3     1    14 1   
     4     1    15 1   
     5     2     3 1   
     6     2    16 1   
     7     2    17 1   
     8     3     4 ar  
     9     3     9 ar  
    10     4     5 1   
    11     4     6 ar  
    12     5    18 1   
    13     5    19 1   
    14     6     7 ar  
    15     6    20 1   
    16     7     8 ar  
    17     7    21 1   
    18     8     9 ar  
    19     8    22 1   
    20     9    10 1   
    21    10    11 1   
    22    10    23 1   
    23    10    24 1   
    24    11    12 1   
    25    12    13 1   
    26    12    25 1   
    27    12    26 1   
    28    13    27 1   
    29    13    28 1   
    30    13    29 1   
@<TRIPOS>SUBSTRUCTURE
     1 4X3         1 TEMP              0 ****  ****    0 ROOT
