@<TRIPOS>MOLECULE
4X6
   26    27     1     0     0
SMALL
No Charge or Current Charge


@<TRIPOS>ATOM
      1 CAG          1.9470     1.2210     0.3590 c6         1 4X6       0.164800
      2 CAF          0.5020     1.6170    -0.0310 c6         1 4X6      -0.019100
      3 CAK         -0.4920     0.4410    -0.0200 ca         1 4X6      -0.122300
      4 CAI         -1.8890     0.6600    -0.0910 ca         1 4X6       0.289000
      5 NAB         -2.4160     1.9250    -0.1610 nv         1 4X6      -1.070000
      6 CAD         -2.7720    -0.4310    -0.0960 ca         1 4X6      -0.181000
      7 CAC         -2.2810    -1.7440    -0.0380 ca         1 4X6      -0.071000
      8 CAE         -0.8970    -1.9680     0.0230 ca         1 4X6      -0.152000
      9 CAJ          0.0020    -0.8850     0.0270 ca         1 4X6      -0.035300
     10 CAH          1.5110    -1.1650     0.1030 c6         1 4X6       0.205100
     11 NAL          2.3690    -0.0270    -0.3210 n3         1 4X6      -0.704600
     12 CAA          3.8090    -0.3150    -0.1480 c3         1 4X6       0.151100
     13 H1           2.6210     2.0510     0.1010 h1         1 4X6       0.030700
     14 H2           2.0000     1.0890     1.4510 h1         1 4X6       0.030700
     15 H3           0.1660     2.4120     0.6470 hc         1 4X6       0.047700
     16 H4           0.5170     2.0550    -1.0380 hc         1 4X6       0.047700
     17 H5          -1.8110     2.7360    -0.0580 hn         1 4X6       0.443000
     18 H6          -3.4220     2.0660    -0.0970 hn         1 4X6       0.443000
     19 H7          -3.8440    -0.2640    -0.1490 ha         1 4X6       0.109000
     20 H8          -2.9700    -2.5850    -0.0420 ha         1 4X6       0.109000
     21 H9          -0.5210    -2.9880     0.0670 ha         1 4X6       0.111000
     22 H10          1.7450    -1.4430     1.1420 h1         1 4X6       0.040200
     23 H11          1.7340    -2.0460    -0.5160 h1         1 4X6       0.040200
     24 H13          4.0540    -0.4700     0.9110 h1         1 4X6       0.030700
     25 H14          4.0920    -1.2190    -0.7040 h1         1 4X6       0.030700
     26 H15          4.4180     0.5180    -0.5240 h1         1 4X6       0.030700
@<TRIPOS>BOND
     1     1     2 1   
     2     1    11 1   
     3     1    13 1   
     4     1    14 1   
     5     2     3 1   
     6     2    15 1   
     7     2    16 1   
     8     3     4 ar  
     9     3     9 ar  
    10     4     5 1   
    11     4     6 ar  
    12     5    17 1   
    13     5    18 1   
    14     6     7 ar  
    15     6    19 1   
    16     7     8 ar  
    17     7    20 1   
    18     8     9 ar  
    19     8    21 1   
    20     9    10 1   
    21    10    11 1   
    22    10    22 1   
    23    10    23 1   
    24    11    12 1   
    25    12    24 1   
    26    12    25 1   
    27    12    26 1   
@<TRIPOS>SUBSTRUCTURE
     1 4X6         1 TEMP              0 ****  ****    0 ROOT
