@<TRIPOS>MOLECULE
4X6
   26    27     1     0     0
SMALL
abcg2


@<TRIPOS>ATOM
      1 CAG          1.9040     1.1850     0.3710 c6         1 4X6       0.164800
      2 CAF          0.4990     1.5940    -0.0350 c6         1 4X6      -0.019100
      3 CAK         -0.4580     0.4340    -0.0310 ca         1 4X6      -0.122300
      4 CAI         -1.8450     0.6600    -0.1330 ca         1 4X6       0.289000
      5 NAB         -2.3380     1.9400    -0.3030 nv         1 4X6      -1.070000
      6 CAD         -2.7180    -0.4310    -0.1240 ca         1 4X6      -0.181000
      7 CAC         -2.2270    -1.7230    -0.0360 ca         1 4X6      -0.071000
      8 CAE         -0.8630    -1.9510     0.0420 ca         1 4X6      -0.152000
      9 CAJ          0.0190    -0.8710     0.0430 ca         1 4X6      -0.035300
     10 CAH          1.4980    -1.1380     0.1370 c6         1 4X6       0.205100
     11 NAL          2.2960    -0.0230    -0.3240 n3         1 4X6      -0.704600
     12 CAA          3.7050    -0.3030    -0.1750 c3         1 4X6       0.151100
     13 H1           2.6020     1.9860     0.1180 h1         1 4X6       0.030700
     14 H2           1.9570     1.0540     1.4660 h1         1 4X6       0.030700
     15 H3           0.1640     2.3810     0.6490 hc         1 4X6       0.047700
     16 H4           0.5220     2.0510    -1.0310 hc         1 4X6       0.047700
     17 H5          -1.8040     2.6860     0.1130 hn         1 4X6       0.443000
     18 H6          -3.3200     2.0480    -0.1030 hn         1 4X6       0.443000
     19 H7          -3.7870    -0.2600    -0.1900 ha         1 4X6       0.109000
     20 H8          -2.9190    -2.5560    -0.0360 ha         1 4X6       0.109000
     21 H9          -0.4790    -2.9630     0.0970 ha         1 4X6       0.111000
     22 H10          1.7440    -1.4010     1.1830 h1         1 4X6       0.040200
     23 H11          1.7440    -2.0200    -0.4620 h1         1 4X6       0.040200
     24 H13          4.0080    -0.4690     0.8710 h1         1 4X6       0.030700
     25 H14          3.9710    -1.1970    -0.7420 h1         1 4X6       0.030700
     26 H15          4.2950     0.5270    -0.5660 h1         1 4X6       0.030700
@<TRIPOS>BOND
     1     1     2 1   
     2     1    11 1   
     3     1    13 1   
     4     1    14 1   
     5     2     3 1   
     6     2    15 1   
     7     2    16 1   
     8     3     4 ar  
     9     3     9 ar  
    10     4     5 1   
    11     4     6 ar  
    12     5    17 1   
    13     5    18 1   
    14     6     7 ar  
    15     6    19 1   
    16     7     8 ar  
    17     7    20 1   
    18     8     9 ar  
    19     8    21 1   
    20     9    10 1   
    21    10    11 1   
    22    10    22 1   
    23    10    23 1   
    24    11    12 1   
    25    12    24 1   
    26    12    25 1   
    27    12    26 1   
@<TRIPOS>SUBSTRUCTURE
     1 4X6         1 TEMP              0 ****  ****    0 ROOT
