@<TRIPOS>MOLECULE
4X8
   40    42     1     0     0
SMALL
No Charge or Current Charge


@<TRIPOS>ATOM
      1 CAJ         -0.2790     1.3120    -0.3680 c6         1 4X8       0.169800
      2 CAI         -1.2910     1.6680     0.7420 c6         1 4X8      -0.033100
      3 CAQ         -2.6140     0.9090     0.6190 ca         1 4X8      -0.027300
      4 CAG         -3.7330     1.3540     1.3450 ca         1 4X8      -0.152000
      5 CAD         -4.9540     0.6700     1.2550 ca         1 4X8      -0.071000
      6 CAF         -5.0580    -0.4640     0.4340 ca         1 4X8      -0.181000
      7 CAO         -3.9490    -0.9210    -0.2940 ca         1 4X8       0.285000
      8 NAC         -4.1110    -2.0270    -1.0910 nv         1 4X8      -1.068000
      9 CAS         -2.7120    -0.2420    -0.1990 ca         1 4X8      -0.130300
     10 CAL         -1.4880    -0.7190    -0.9980 c6         1 4X8       0.221100
     11 NAT         -0.1880    -0.1590    -0.5420 n3         1 4X8      -0.721600
     12 CAK          0.9490    -0.5840    -1.4150 c3         1 4X8       0.116500
     13 CAR          2.3630    -0.1920    -0.9280 ca         1 4X8       0.376300
     14 NAM          3.0320     0.6720    -1.7340 nb         1 4X8      -0.708000
     15 CAE          4.2630     1.0740    -1.3660 ca         1 4X8       0.366900
     16 CAH          4.8760     0.6460    -0.1890 ca         1 4X8      -0.243000
     17 CAN          4.2000    -0.2410     0.6440 ca         1 4X8       0.331000
     18 NAB          4.8120    -0.6390     1.8020 nv         1 4X8      -1.086000
     19 CAP          2.9150    -0.6930     0.2800 ca         1 4X8      -0.167300
     20 CAA          2.1320    -1.6710     1.1690 c3         1 4X8      -0.036800
     21 H1          -0.5920     1.7870    -1.3100 h1         1 4X8       0.040200
     22 H2           0.6970     1.7410    -0.0970 h1         1 4X8       0.040200
     23 H3          -0.8430     1.4380     1.7180 hc         1 4X8       0.054700
     24 H4          -1.4720     2.7510     0.7330 hc         1 4X8       0.054700
     25 H5          -3.6560     2.2330     1.9820 ha         1 4X8       0.111000
     26 H6          -5.8180     1.0180     1.8180 ha         1 4X8       0.109000
     27 H7          -6.0090    -0.9860     0.3660 ha         1 4X8       0.110000
     28 H8          -5.0390    -2.4250    -1.2260 hn         1 4X8       0.440500
     29 H9          -3.3740    -2.3170    -1.7290 hn         1 4X8       0.440500
     30 H10         -1.4380    -1.8170    -0.9490 h1         1 4X8       0.035200
     31 H11         -1.6550    -0.4560    -2.0530 h1         1 4X8       0.035200
     32 H13          0.9350    -1.6760    -1.5330 h1         1 4X8       0.049200
     33 H14          0.8020    -0.1740    -2.4240 h1         1 4X8       0.049200
     34 H15          4.7690     1.7670    -2.0370 h4         1 4X8       0.014100
     35 H16          5.8680     1.0070     0.0630 ha         1 4X8       0.119000
     36 H17          5.6600    -0.1660     2.1090 hn         1 4X8       0.462000
     37 H18          4.2750    -1.1360     2.5080 hn         1 4X8       0.462000
     38 H19          2.7900    -2.3430     1.7320 hc         1 4X8       0.044367
     39 H20          1.5110    -1.1280     1.8910 hc         1 4X8       0.044367
     40 H21          1.4700    -2.3220     0.5870 hc         1 4X8       0.044367
@<TRIPOS>BOND
     1     1     2 1   
     2     1    11 1   
     3     1    21 1   
     4     1    22 1   
     5     2     3 1   
     6     2    23 1   
     7     2    24 1   
     8     3     4 ar  
     9     3     9 ar  
    10     4     5 ar  
    11     4    25 1   
    12     5     6 ar  
    13     5    26 1   
    14     6     7 ar  
    15     6    27 1   
    16     7     8 1   
    17     7     9 ar  
    18     8    28 1   
    19     8    29 1   
    20     9    10 1   
    21    10    11 1   
    22    10    30 1   
    23    10    31 1   
    24    11    12 1   
    25    12    13 1   
    26    12    32 1   
    27    12    33 1   
    28    13    14 ar  
    29    13    19 ar  
    30    14    15 ar  
    31    15    16 ar  
    32    15    34 1   
    33    16    17 ar  
    34    16    35 1   
    35    17    18 1   
    36    17    19 ar  
    37    18    36 1   
    38    18    37 1   
    39    19    20 1   
    40    20    38 1   
    41    20    39 1   
    42    20    40 1   
@<TRIPOS>SUBSTRUCTURE
     1 4X8         1 TEMP              0 ****  ****    0 ROOT
