@<TRIPOS>MOLECULE
4X8
   40    42     1     0     0
SMALL
bcc


@<TRIPOS>ATOM
      1 CAJ         -0.2680     1.2910    -0.4720 c6         1 4X8       0.169800
      2 CAI         -1.1720     1.6240     0.6990 c6         1 4X8      -0.033100
      3 CAQ         -2.4760     0.8770     0.6310 ca         1 4X8      -0.027300
      4 CAG         -3.5660     1.3000     1.3910 ca         1 4X8      -0.170000
      5 CAD         -4.7630     0.6060     1.3290 ca         1 4X8      -0.089000
      6 CAF         -4.8930    -0.4960     0.4990 ca         1 4X8      -0.199000
      7 CAO         -3.8120    -0.9300    -0.2720 ca         1 4X8       0.146600
      8 NAC         -3.9220    -2.0620    -1.0630 nv         1 4X8      -0.819200
      9 CAS         -2.5870    -0.2430    -0.1870 ca         1 4X8      -0.130300
     10 CAL         -1.4180    -0.7380    -0.9940 c6         1 4X8       0.221100
     11 NAT         -0.1630    -0.1490    -0.5880 n3         1 4X8      -0.721600
     12 CAK          0.9120    -0.5860    -1.4560 c3         1 4X8       0.116500
     13 CAR          2.2740    -0.1810    -0.9480 ca         1 4X8       0.441600
     14 NAM          2.9590     0.6380    -1.7490 nb         1 4X8      -0.708000
     15 CAE          4.1630     1.0310    -1.3490 ca         1 4X8       0.432200
     16 CAH          4.7360     0.6540    -0.1550 ca         1 4X8      -0.326300
     17 CAN          4.0260    -0.2050     0.6910 ca         1 4X8       0.192600
     18 NAB          4.5730    -0.6420     1.8610 nv         1 4X8      -0.837200
     19 CAP          2.7540    -0.6460     0.2750 ca         1 4X8      -0.232600
     20 CAA          1.9960    -1.6010     1.1490 c3         1 4X8      -0.036800
     21 H1          -0.6490     1.7520    -1.4000 h1         1 4X8       0.040200
     22 H2           0.7210     1.7140    -0.2950 h1         1 4X8       0.040200
     23 H3          -0.6530     1.3680     1.6270 hc         1 4X8       0.054700
     24 H4          -1.3610     2.7000     0.7350 hc         1 4X8       0.054700
     25 H5          -3.4710     2.1730     2.0270 ha         1 4X8       0.129000
     26 H6          -5.6100     0.9300     1.9210 ha         1 4X8       0.127000
     27 H7          -5.8370    -1.0260     0.4410 ha         1 4X8       0.128000
     28 H8          -4.8670    -2.3750    -1.2180 hn         1 4X8       0.385300
     29 H9          -3.4110    -2.0440    -1.9320 hn         1 4X8       0.385300
     30 H10         -1.3380    -1.8250    -0.8820 h1         1 4X8       0.035200
     31 H11         -1.6170    -0.5600    -2.0700 h1         1 4X8       0.035200
     32 H13          0.8580    -1.6770    -1.5310 h1         1 4X8       0.049200
     33 H14          0.8020    -0.1980    -2.4810 h1         1 4X8       0.049200
     34 H15          4.7020     1.6950    -2.0170 h4         1 4X8       0.014100
     35 H16          5.7180     1.0190     0.1210 ha         1 4X8       0.137000
     36 H17          5.3640    -0.1290     2.2140 hn         1 4X8       0.406800
     37 H18          3.9500    -0.9520     2.5880 hn         1 4X8       0.406800
     38 H19          2.6010    -2.4810     1.3810 hc         1 4X8       0.044367
     39 H20          1.7200    -1.1400     2.1010 hc         1 4X8       0.044367
     40 H21          1.0720    -1.9360     0.6910 hc         1 4X8       0.044367
@<TRIPOS>BOND
     1     1     2 1   
     2     1    11 1   
     3     1    21 1   
     4     1    22 1   
     5     2     3 1   
     6     2    23 1   
     7     2    24 1   
     8     3     4 ar  
     9     3     9 ar  
    10     4     5 ar  
    11     4    25 1   
    12     5     6 ar  
    13     5    26 1   
    14     6     7 ar  
    15     6    27 1   
    16     7     8 1   
    17     7     9 ar  
    18     8    28 1   
    19     8    29 1   
    20     9    10 1   
    21    10    11 1   
    22    10    30 1   
    23    10    31 1   
    24    11    12 1   
    25    12    13 1   
    26    12    32 1   
    27    12    33 1   
    28    13    14 ar  
    29    13    19 ar  
    30    14    15 ar  
    31    15    16 ar  
    32    15    34 1   
    33    16    17 ar  
    34    16    35 1   
    35    17    18 1   
    36    17    19 ar  
    37    18    36 1   
    38    18    37 1   
    39    19    20 1   
    40    20    38 1   
    41    20    39 1   
    42    20    40 1   
@<TRIPOS>SUBSTRUCTURE
     1 4X8         1 TEMP              0 ****  ****    0 ROOT
