@<TRIPOS>MOLECULE
4X9
   43    45     1     0     0
SMALL
bcc


@<TRIPOS>ATOM
      1 C1          -6.7960     1.1220     0.7400 c3         1 4X9       0.852700
      2 O3          -6.2430     0.8470    -0.4470 os         1 4X9      -0.373900
      3 C4          -5.0520     0.1270    -0.4530 ca         1 4X9       0.051100
      4 C5          -3.8470     0.8020    -0.4250 ca         1 4X9      -0.083500
      5 C6          -2.6560     0.0910    -0.4860 ca         1 4X9      -0.175000
      6 C7          -2.6880    -1.2960    -0.5740 ca         1 4X9       0.153100
      7 C8          -3.9070    -1.9660    -0.6110 ca         1 4X9      -0.175000
      8 C9          -5.0920    -1.2550    -0.5510 ca         1 4X9      -0.083500
      9 O10         -1.5770    -2.0750    -0.6460 os         1 4X9      -0.249200
     10 C11         -0.3390    -1.4920    -0.5240 ca         1 4X9       0.091100
     11 C12          0.1760    -1.2260     0.7360 ca         1 4X9      -0.135000
     12 C13          1.4420    -0.6720     0.8470 ca         1 4X9      -0.101500
     13 C14          2.1950    -0.3810    -0.2870 cp         1 4X9      -0.014000
     14 C15          1.6620    -0.6630    -1.5410 ca         1 4X9      -0.101500
     15 C16          0.3940    -1.2120    -1.6660 ca         1 4X9      -0.135000
     16 C17          3.5380     0.2320    -0.1580 cp         1 4X9      -0.210300
     17 C18          4.6770    -0.5720    -0.1690 ca         1 4X9       0.209100
     18 C19          5.9180     0.0480    -0.0300 ca         1 4X9      -0.213900
     19 C20          6.0010     1.4260     0.1100 ca         1 4X9       0.489600
     20 C22          3.7060     1.6070    -0.0160 ca         1 4X9       0.481600
     21 F23         -6.0090     1.8690     1.5160 f          1 4X9      -0.231300
     22 F24         -7.9160     1.7920     0.5170 f          1 4X9      -0.231300
     23 F25         -7.0950     0.0250     1.4370 f          1 4X9      -0.231300
     24 C26          7.3190     2.1180     0.2620 c3         1 4X9      -0.150400
     25 CL           7.3460    -0.9330    -0.0330 cl         1 4X9      -0.101400
     26 O28          4.5210    -1.8850    -0.3070 oh         1 4X9      -0.471100
     27 C29          2.5200     2.5230    -0.0050 c3         1 4X9      -0.149400
     28 N30          4.9040     2.1750     0.1120 nb         1 4X9      -0.704000
     29 H5          -3.8190     1.8830    -0.3730 ha         1 4X9       0.153500
     30 H6          -1.7220     0.6370    -0.4670 ha         1 4X9       0.153500
     31 H8          -3.9280    -3.0460    -0.6870 ha         1 4X9       0.153500
     32 H9          -6.0370    -1.7800    -0.5950 ha         1 4X9       0.153500
     33 H12         -0.4020    -1.4510     1.6230 ha         1 4X9       0.149000
     34 H13          1.8450    -0.4600     1.8290 ha         1 4X9       0.141000
     35 H15          2.2360    -0.4440    -2.4330 ha         1 4X9       0.141000
     36 H16         -0.0180    -1.4260    -2.6440 ha         1 4X9       0.149000
     37 H26          7.9540     1.9620    -0.6110 hc         1 4X9       0.060700
     38 H26A         7.1620     3.1860     0.3870 hc         1 4X9       0.060700
     39 H26B         7.8670     1.7440     1.1280 hc         1 4X9       0.060700
     40 HO28         5.3720    -2.3440    -0.3150 ho         1 4X9       0.445000
     41 H29          1.8840     2.3420     0.8630 hc         1 4X9       0.057367
     42 H29A         2.8490     3.5600     0.0240 hc         1 4X9       0.057367
     43 H29B         1.8950     2.3800    -0.8870 hc         1 4X9       0.057367
@<TRIPOS>BOND
     1     1     2 1   
     2     1    21 1   
     3     1    22 1   
     4     1    23 1   
     5     2     3 1   
     6     3     4 ar  
     7     3     8 ar  
     8     4     5 ar  
     9     4    29 1   
    10     5     6 ar  
    11     5    30 1   
    12     6     7 ar  
    13     6     9 1   
    14     7     8 ar  
    15     7    31 1   
    16     8    32 1   
    17     9    10 1   
    18    10    11 ar  
    19    10    15 ar  
    20    11    12 ar  
    21    11    33 1   
    22    12    13 ar  
    23    12    34 1   
    24    13    14 ar  
    25    13    16 1   
    26    14    15 ar  
    27    14    35 1   
    28    15    36 1   
    29    16    17 ar  
    30    16    20 ar  
    31    17    18 ar  
    32    17    26 1   
    33    18    19 ar  
    34    18    25 1   
    35    19    24 1   
    36    19    28 ar  
    37    20    27 1   
    38    20    28 ar  
    39    24    37 1   
    40    24    38 1   
    41    24    39 1   
    42    26    40 1   
    43    27    41 1   
    44    27    42 1   
    45    27    43 1   
@<TRIPOS>SUBSTRUCTURE
     1 4X9         1 TEMP              0 ****  ****    0 ROOT
