@<TRIPOS>MOLECULE
4X9
   43    45     1     0     0
SMALL
No Charge or Current Charge


@<TRIPOS>ATOM
      1 C1          -6.7760     1.4910     0.8460 c3         1 4X9       0.512000
      2 O3          -6.4350     0.1110     0.5930 os         1 4X9      -0.397100
      3 C4          -5.2170    -0.3090     0.0860 ca         1 4X9       0.051100
      4 C5          -4.1640     0.5760    -0.2480 ca         1 4X9      -0.065500
      5 C6          -2.9540     0.0690    -0.7590 ca         1 4X9      -0.157000
      6 C7          -2.7830    -1.3180    -0.9320 ca         1 4X9       0.153100
      7 C8          -3.8310    -2.1940    -0.6140 ca         1 4X9      -0.157000
      8 C9          -5.0410    -1.6920    -0.1040 ca         1 4X9      -0.065500
      9 O10         -1.6130    -1.8340    -1.4420 os         1 4X9      -0.249200
     10 C11         -0.3730    -1.3270    -1.1260 ca         1 4X9       0.091100
     11 C12         -0.0720    -0.8990     0.1820 ca         1 4X9      -0.117000
     12 C13          1.2060    -0.3960     0.4790 ca         1 4X9      -0.083500
     13 C14          2.2070    -0.3160    -0.5190 cp         1 4X9      -0.014000
     14 C15          1.8910    -0.7680    -1.8220 ca         1 4X9      -0.083500
     15 C16          0.6140    -1.2720    -2.1230 ca         1 4X9      -0.117000
     16 C17          3.5650     0.2270    -0.2050 cp         1 4X9      -0.145000
     17 C18          4.7250    -0.5710    -0.3480 ca         1 4X9       0.209100
     18 C19          5.9840    -0.0300    -0.0390 ca         1 4X9      -0.057000
     19 C20          6.0500     1.3060     0.4050 ca         1 4X9       0.424300
     20 C22          3.7460     1.5620     0.2440 ca         1 4X9       0.416300
     21 F23         -6.7400     2.2390    -0.2810 f          1 4X9      -0.110000
     22 F24         -8.0290     1.5890     1.3420 f          1 4X9      -0.110000
     23 F25         -5.9490     2.0610     1.7520 f          1 4X9      -0.110000
     24 C26          7.3720     1.9640     0.7610 c3         1 4X9      -0.150400
     25 Cl           7.4460    -1.0190    -0.2060 cl         1 4X9      -0.193000
     26 O28          4.6370    -1.8700    -0.7660 oh         1 4X9      -0.510100
     27 C29          2.5890     2.5350     0.4070 c3         1 4X9      -0.149400
     28 N30          4.9560     2.0850     0.5420 nb         1 4X9      -0.704000
     29 H5          -4.2600     1.6500    -0.1240 ha         1 4X9       0.135500
     30 H6          -2.1540     0.7560    -1.0230 ha         1 4X9       0.135500
     31 H8          -3.7030    -3.2640    -0.7600 ha         1 4X9       0.135500
     32 H9          -5.8490    -2.3760     0.1460 ha         1 4X9       0.135500
     33 H12         -0.8220    -0.9610     0.9670 ha         1 4X9       0.131000
     34 H13          1.4290    -0.0740     1.4940 ha         1 4X9       0.123000
     35 H15          2.6460    -0.7230    -2.6040 ha         1 4X9       0.123000
     36 H16          0.3860    -1.6140    -3.1290 ha         1 4X9       0.131000
     37 H26          8.0470     1.9720    -0.1030 hc         1 4X9       0.060700
     38 H26A         7.2390     3.0030     1.0860 hc         1 4X9       0.060700
     39 H26B         7.8690     1.4240     1.5740 hc         1 4X9       0.060700
     40 HO28         5.5450    -2.2400    -0.7840 ho         1 4X9       0.484000
     41 H29          2.0660     2.3610     1.3530 hc         1 4X9       0.057367
     42 H29A         2.9290     3.5780     0.4020 hc         1 4X9       0.057367
     43 H29B         1.8630     2.4280    -0.4070 hc         1 4X9       0.057367
@<TRIPOS>BOND
     1     1     2 1   
     2     1    21 1   
     3     1    22 1   
     4     1    23 1   
     5     2     3 1   
     6     3     4 ar  
     7     3     8 ar  
     8     4     5 ar  
     9     4    29 1   
    10     5     6 ar  
    11     5    30 1   
    12     6     7 ar  
    13     6     9 1   
    14     7     8 ar  
    15     7    31 1   
    16     8    32 1   
    17     9    10 1   
    18    10    11 ar  
    19    10    15 ar  
    20    11    12 ar  
    21    11    33 1   
    22    12    13 ar  
    23    12    34 1   
    24    13    14 ar  
    25    13    16 1   
    26    14    15 ar  
    27    14    35 1   
    28    15    36 1   
    29    16    17 ar  
    30    16    20 ar  
    31    17    18 ar  
    32    17    26 1   
    33    18    19 ar  
    34    18    25 1   
    35    19    24 1   
    36    19    28 ar  
    37    20    27 1   
    38    20    28 ar  
    39    24    37 1   
    40    24    38 1   
    41    24    39 1   
    42    26    40 1   
    43    27    41 1   
    44    27    42 1   
    45    27    43 1   
@<TRIPOS>SUBSTRUCTURE
     1 4X9         1 TEMP              0 ****  ****    0 ROOT
