@<TRIPOS>MOLECULE
4XA
   46    49     1     0     0
SMALL
No Charge or Current Charge


@<TRIPOS>ATOM
      1 C1           5.9770     0.5560    -0.8000 ca         1 4XA      -0.074000
      2 C2           6.8500    -0.5540    -0.6970 ca         1 4XA      -0.079800
      3 O1          -2.3510    -0.8690     0.3180 o          1 4XA      -0.529100
      4 O2          -7.4020    -1.0440     0.5840 os         1 4XA      -0.201000
      5 N1           2.5210     0.7770     0.3990 na         1 4XA       0.067400
      6 N2          -3.6440     0.9400     0.8720 ns         1 4XA      -0.278900
      7 N3          -4.8680     0.2970     0.8040 n2         1 4XA      -0.384300
      8 C3           6.4050    -1.7550    -0.0680 ca         1 4XA      -0.079800
      9 C4           5.0910    -1.8360     0.4510 ca         1 4XA      -0.074000
     10 C5           4.2580    -0.7190     0.3300 ca         1 4XA      -0.087500
     11 C6           4.6870     0.4380    -0.2740 ca         1 4XA      -0.087500
     12 C7           2.8920    -0.5200     0.7620 cc         1 4XA      -0.223600
     13 C8           3.6010     1.3920    -0.2390 cc         1 4XA      -0.223600
     14 C9           1.2750     1.3650     0.6380 ca         1 4XA      -0.007200
     15 C10          0.0930     0.6030     0.5270 ca         1 4XA      -0.066000
     16 C11         -1.1780     1.1790     0.7650 ca         1 4XA      -0.140600
     17 C12         -1.2410     2.5500     1.1200 ca         1 4XA      -0.092000
     18 C13         -0.0660     3.3120     1.2300 ca         1 4XA      -0.102000
     19 C14          1.1850     2.7250     0.9900 ca         1 4XA      -0.096000
     20 C15         -2.4220     0.3160     0.6290 c          1 4XA       0.631700
     21 C16         -5.4780     0.2170    -0.3400 ce         1 4XA       0.276200
     22 C17         -6.7650    -0.4630    -0.4980 cc         1 4XA       0.089700
     23 C18         -8.5740    -1.5980     0.1180 cc         1 4XA       0.136900
     24 C19         -8.6780    -1.3740    -1.2270 cd         1 4XA      -0.194000
     25 C20         -7.5310    -0.6550    -1.6180 cd         1 4XA      -0.159000
     26 C21          7.3260    -2.9650     0.0560 c3         1 4XA      -0.044300
     27 C22          8.2620    -0.4400    -1.2660 c3         1 4XA      -0.044300
     28 H1           6.2950     1.4810    -1.2750 ha         1 4XA       0.109000
     29 H2          -3.5950     1.9210     1.1240 hn         1 4XA       0.307500
     30 H3           4.7300    -2.7400     0.9350 ha         1 4XA       0.109000
     31 H4           2.2050    -1.1680     1.2940 h4         1 4XA       0.223000
     32 H5           3.5190     2.4030    -0.6210 h4         1 4XA       0.223000
     33 H6           0.1630    -0.4450     0.2420 ha         1 4XA       0.151000
     34 H7          -2.1890     3.0450     1.3140 ha         1 4XA       0.118000
     35 H8          -0.1270     4.3630     1.5050 ha         1 4XA       0.124000
     36 H9           2.0850     3.3290     1.0910 ha         1 4XA       0.133000
     37 H10         -5.0570     0.6470    -1.2520 h4         1 4XA      -0.002200
     38 H11         -9.2160    -2.1030     0.8260 h4         1 4XA       0.057100
     39 H12         -9.4950    -1.6950    -1.8650 ha         1 4XA       0.144000
     40 H13         -7.2910    -0.3120    -2.6200 ha         1 4XA       0.140000
     41 H14          8.2250    -2.7200     0.6340 hc         1 4XA       0.038033
     42 H15          6.8320    -3.8030     0.5630 hc         1 4XA       0.038033
     43 H16          7.6440    -3.3230    -0.9300 hc         1 4XA       0.038033
     44 H17          9.0160    -0.5870    -0.4840 hc         1 4XA       0.038033
     45 H18          8.4350    -1.1900    -2.0470 hc         1 4XA       0.038033
     46 H19          8.4430     0.5440    -1.7130 hc         1 4XA       0.038033
@<TRIPOS>BOND
     1     1     2 ar  
     2     1    11 ar  
     3     1    28 1   
     4     2     8 ar  
     5     2    27 1   
     6     3    20 2   
     7     4    22 1   
     8     4    23 1   
     9     5    12 1   
    10     5    13 1   
    11     5    14 1   
    12     6     7 1   
    13     6    20 1   
    14     6    29 1   
    15     7    21 2   
    16     8     9 ar  
    17     8    26 1   
    18     9    10 ar  
    19     9    30 1   
    20    10    11 ar  
    21    10    12 2   
    22    11    13 2   
    23    12    31 1   
    24    13    32 1   
    25    14    15 ar  
    26    14    19 ar  
    27    15    16 ar  
    28    15    33 1   
    29    16    17 ar  
    30    16    20 1   
    31    17    18 ar  
    32    17    34 1   
    33    18    19 ar  
    34    18    35 1   
    35    19    36 1   
    36    21    22 1   
    37    21    37 1   
    38    22    25 2   
    39    23    24 2   
    40    23    38 1   
    41    24    25 1   
    42    24    39 1   
    43    25    40 1   
    44    26    41 1   
    45    26    42 1   
    46    26    43 1   
    47    27    44 1   
    48    27    45 1   
    49    27    46 1   
@<TRIPOS>SUBSTRUCTURE
     1 4XA         1 TEMP              0 ****  ****    0 ROOT
