@<TRIPOS>MOLECULE
4XA
   46    49     1     0     0
SMALL
abcg2


@<TRIPOS>ATOM
      1 C1           5.9820     0.5480    -0.7880 ca         1 4XA      -0.074000
      2 C2           6.8550    -0.4860    -0.6100 ca         1 4XA      -0.079800
      3 O1          -2.1880    -1.1370     0.9220 o          1 4XA      -0.529100
      4 O2          -6.9590    -1.5310     0.0240 os         1 4XA      -0.201000
      5 N1           2.5470     0.6780     0.3370 na         1 4XA       0.067400
      6 N2          -3.4430     0.5930     0.1720 ns         1 4XA      -0.278900
      7 N3          -4.5710    -0.1370     0.1330 n2         1 4XA      -0.384300
      8 C3           6.4420    -1.6850     0.0850 ca         1 4XA      -0.079800
      9 C4           5.1710    -1.8000     0.5720 ca         1 4XA      -0.074000
     10 C5           4.2470    -0.7390     0.3960 ca         1 4XA      -0.087500
     11 C6           4.6590     0.4520    -0.2860 ca         1 4XA      -0.087500
     12 C7           2.9260    -0.5620     0.7660 cc         1 4XA      -0.223600
     13 C8           3.5750     1.3110    -0.3010 cc         1 4XA      -0.223600
     14 C9           1.2660     1.2340     0.5300 ca         1 4XA      -0.007200
     15 C10          0.1440     0.4200     0.4760 ca         1 4XA      -0.066000
     16 C11         -1.1220     0.9670     0.6570 ca         1 4XA      -0.140600
     17 C12         -1.2600     2.3310     0.9010 ca         1 4XA      -0.092000
     18 C13         -0.1320     3.1360     0.9580 ca         1 4XA      -0.102000
     19 C14          1.1300     2.5960     0.7780 ca         1 4XA      -0.096000
     20 C15         -2.2850     0.0330     0.6070 c          1 4XA       0.631700
     21 C16         -5.6010     0.4200    -0.3700 ce         1 4XA       0.276200
     22 C17         -6.8580    -0.2710    -0.4520 cc         1 4XA       0.089700
     23 C18         -8.2260    -1.9360    -0.1780 cc         1 4XA       0.136900
     24 C19         -8.9500    -0.9590    -0.7780 cd         1 4XA      -0.194000
     25 C20         -8.0570     0.1320    -0.9580 cd         1 4XA      -0.159000
     26 C21          7.4280    -2.8020     0.2670 c3         1 4XA      -0.044300
     27 C22          8.2580    -0.3910    -1.1370 c3         1 4XA      -0.044300
     28 H1           6.3000     1.4440    -1.3090 ha         1 4XA       0.109000
     29 H2          -3.4460     1.5360    -0.2010 hn         1 4XA       0.307500
     30 H3           4.8670    -2.7020     1.0900 ha         1 4XA       0.109000
     31 H4           2.2590    -1.1930     1.3290 h4         1 4XA       0.223000
     32 H5           3.4500     2.2830    -0.7470 h4         1 4XA       0.223000
     33 H6           0.2480    -0.6370     0.2700 ha         1 4XA       0.151000
     34 H7          -2.2310     2.7740     1.0790 ha         1 4XA       0.118000
     35 H8          -0.2360     4.1930     1.1630 ha         1 4XA       0.124000
     36 H9           2.0040     3.2300     0.8510 ha         1 4XA       0.133000
     37 H10         -5.5980     1.4370    -0.7650 h4         1 4XA      -0.002200
     38 H11         -8.4720    -2.9330     0.1500 h4         1 4XA       0.057100
     39 H12         -9.9900    -1.0110    -1.0570 ha         1 4XA       0.144000
     40 H13         -8.2700     1.0900    -1.4040 ha         1 4XA       0.140000
     41 H14          8.3040    -2.4820     0.8370 hc         1 4XA       0.038033
     42 H15          6.9790    -3.6410     0.7990 hc         1 4XA       0.038033
     43 H16          7.7990    -3.1760    -0.6890 hc         1 4XA       0.038033
     44 H17          8.9980    -0.5190    -0.3440 hc         1 4XA       0.038033
     45 H18          8.4630    -1.1610    -1.8840 hc         1 4XA       0.038033
     46 H19          8.4370     0.5770    -1.6030 hc         1 4XA       0.038033
@<TRIPOS>BOND
     1     1     2 ar  
     2     1    11 ar  
     3     1    28 1   
     4     2     8 ar  
     5     2    27 1   
     6     3    20 2   
     7     4    22 1   
     8     4    23 1   
     9     5    12 1   
    10     5    13 1   
    11     5    14 1   
    12     6     7 1   
    13     6    20 1   
    14     6    29 1   
    15     7    21 2   
    16     8     9 ar  
    17     8    26 1   
    18     9    10 ar  
    19     9    30 1   
    20    10    11 ar  
    21    10    12 2   
    22    11    13 2   
    23    12    31 1   
    24    13    32 1   
    25    14    15 ar  
    26    14    19 ar  
    27    15    16 ar  
    28    15    33 1   
    29    16    17 ar  
    30    16    20 1   
    31    17    18 ar  
    32    17    34 1   
    33    18    19 ar  
    34    18    35 1   
    35    19    36 1   
    36    21    22 1   
    37    21    37 1   
    38    22    25 2   
    39    23    24 2   
    40    23    38 1   
    41    24    25 1   
    42    24    39 1   
    43    25    40 1   
    44    26    41 1   
    45    26    42 1   
    46    26    43 1   
    47    27    44 1   
    48    27    45 1   
    49    27    46 1   
@<TRIPOS>SUBSTRUCTURE
     1 4XA         1 TEMP              0 ****  ****    0 ROOT
