@<TRIPOS>MOLECULE
4XB
   54    57     1     0     0
SMALL
No Charge or Current Charge


@<TRIPOS>ATOM
      1 C           -1.8720     2.3390     0.0400 c3         1 4XB      -0.037900
      2 N           -8.0200     0.3590     1.2720 n7         1 4XB      -0.844400
      3 O            0.4160    -0.5850    -0.5330 os         1 4XB      -0.135200
      4 C1          -1.1660     1.0310    -0.2230 cc         1 4XB      -0.002400
      5 O1          -4.1220     0.3110    -0.4120 os         1 4XB      -0.343100
      6 C2           0.2020     0.7520    -0.2940 cd         1 4XB      -0.075100
      7 O2           1.2200     2.9000     0.0370 o          1 4XB      -0.488000
      8 C3          -0.7880    -1.1970    -0.6390 ca         1 4XB       0.119100
      9 C4          -1.0340    -2.5470    -0.8950 ca         1 4XB      -0.155000
     10 C5          -2.3770    -2.9580    -0.9840 ca         1 4XB      -0.037000
     11 C6          -3.4230    -2.0180    -0.8200 ca         1 4XB      -0.245000
     12 C7          -3.1400    -0.6510    -0.5540 ca         1 4XB       0.219100
     13 C8          -5.5100    -0.0260    -0.2140 c6         1 4XB       0.177300
     14 C9          -6.3640     1.2540    -0.3620 c6         1 4XB      -0.131400
     15 C10         -7.8540     0.9600    -0.0730 c6         1 4XB       0.149800
     16 C11         -7.2440    -0.8920     1.4430 c6         1 4XB       0.149800
     17 C12         -5.7400    -0.6450     1.1900 c6         1 4XB      -0.131400
     18 C13         -1.7890    -0.2690    -0.4690 ca         1 4XB      -0.181800
     19 C14          1.3460     1.6970    -0.1540 c          1 4XB       0.640300
     20 C15          8.2230    -2.0360     1.7420 c3         1 4XB       0.148900
     21 C19          3.7470     1.9100    -0.1570 c3         1 4XB       0.212900
     22 C20          4.9720     1.0180    -0.3180 ca         1 4XB      -0.063300
     23 C21          5.5940     0.8800    -1.5740 ca         1 4XB      -0.123000
     24 C22          6.7220     0.0550    -1.7190 ca         1 4XB      -0.078000
     25 C23          7.2370    -0.6390    -0.6100 ca         1 4XB      -0.186000
     26 C24          6.6180    -0.5080     0.6520 ca         1 4XB       0.136100
     27 C25          5.4900     0.3190     0.7890 ca         1 4XB      -0.118000
     28 OAQ          7.0770    -1.1660     1.7760 os         1 4XB      -0.341100
     29 OAR          2.5720     1.0910    -0.2710 os         1 4XB      -0.419100
     30 H           -2.1960     2.8020    -0.8990 hc         1 4XB       0.058700
     31 HA          -2.7570     2.1900     0.6670 hc         1 4XB       0.058700
     32 HB          -1.2340     3.0540     0.5700 hc         1 4XB       0.058700
     33 HN          -7.6970     1.0390     1.9720 hn         1 4XB       0.407000
     34 H4          -0.2160    -3.2510    -1.0250 ha         1 4XB       0.138000
     35 H5          -2.6110    -4.0010    -1.1870 ha         1 4XB       0.115000
     36 H6          -4.4440    -2.3720    -0.9120 ha         1 4XB       0.120000
     37 H8          -5.8280    -0.7320    -0.9940 h1         1 4XB       0.049700
     38 H9          -5.9990     2.0300     0.3250 hc         1 4XB       0.059200
     39 H9A         -6.2590     1.6560    -1.3780 hc         1 4XB       0.059200
     40 H10         -8.2480     0.2720    -0.8370 h1         1 4XB       0.056200
     41 H10A        -8.4340     1.8930    -0.1380 h1         1 4XB       0.056200
     42 H11         -7.3890    -1.2830     2.4620 h1         1 4XB       0.056200
     43 H11A        -7.6140    -1.6560     0.7410 h1         1 4XB       0.056200
     44 H12         -5.1970    -1.5940     1.2890 hc         1 4XB       0.059200
     45 H12A        -5.3390     0.0250     1.9630 hc         1 4XB       0.059200
     46 H15          8.0570    -2.8710     1.0490 h1         1 4XB       0.040367
     47 H15A         9.1190    -1.4880     1.4260 h1         1 4XB       0.040367
     48 H15B         8.4130    -2.4530     2.7380 h1         1 4XB       0.040367
     49 H19          3.7830     2.4060     0.8220 h1         1 4XB       0.057700
     50 H19A         3.7560     2.6890    -0.9310 h1         1 4XB       0.057700
     51 H21          5.2020     1.4100    -2.4390 ha         1 4XB       0.118000
     52 H22          7.1970    -0.0460    -2.6930 ha         1 4XB       0.113000
     53 H23          8.1100    -1.2690    -0.7500 ha         1 4XB       0.116000
     54 H25          5.0160     0.4130     1.7630 ha         1 4XB       0.130000
@<TRIPOS>BOND
     1     1     4 1   
     2     1    30 1   
     3     1    31 1   
     4     1    32 1   
     5     2    15 1   
     6     2    16 1   
     7     2    33 1   
     8     3     6 1   
     9     3     8 1   
    10     4     6 2   
    11     4    18 1   
    12     5    12 1   
    13     5    13 1   
    14     6    19 1   
    15     7    19 2   
    16     8     9 ar  
    17     8    18 ar  
    18     9    10 ar  
    19     9    34 1   
    20    10    11 ar  
    21    10    35 1   
    22    11    12 ar  
    23    11    36 1   
    24    12    18 ar  
    25    13    14 1   
    26    13    17 1   
    27    13    37 1   
    28    14    15 1   
    29    14    38 1   
    30    14    39 1   
    31    15    40 1   
    32    15    41 1   
    33    16    17 1   
    34    16    42 1   
    35    16    43 1   
    36    17    44 1   
    37    17    45 1   
    38    19    29 1   
    39    20    28 1   
    40    20    46 1   
    41    20    47 1   
    42    20    48 1   
    43    21    22 1   
    44    21    29 1   
    45    21    49 1   
    46    21    50 1   
    47    22    23 ar  
    48    22    27 ar  
    49    23    24 ar  
    50    23    51 1   
    51    24    25 ar  
    52    24    52 1   
    53    25    26 ar  
    54    25    53 1   
    55    26    27 ar  
    56    26    28 1   
    57    27    54 1   
@<TRIPOS>SUBSTRUCTURE
     1 4XB         1 TEMP              0 ****  ****    0 ROOT
