@<TRIPOS>MOLECULE
4XB
   54    57     1     0     0
SMALL
bcc


@<TRIPOS>ATOM
      1 C           -1.8210     2.3810     0.3130 c3         1 4XB      -0.037900
      2 N           -8.1780     0.3200     0.5360 n7         1 4XB      -0.789200
      3 O            0.5220    -0.4670    -0.0930 os         1 4XB      -0.135200
      4 C1          -1.1000     1.0930     0.1300 cc         1 4XB      -0.002400
      5 O1          -3.9860     0.2670    -0.0210 os         1 4XB      -0.319900
      6 C2           0.2410     0.8570     0.0940 cd         1 4XB      -0.075100
      7 O2           1.2740     2.9490     0.4520 o          1 4XB      -0.537000
      8 C3          -0.6530    -1.1070    -0.1780 ca         1 4XB       0.119100
      9 C4          -0.8260    -2.4710    -0.3680 ca         1 4XB      -0.173000
     10 C5          -2.1380    -2.8980    -0.4290 ca         1 4XB      -0.055000
     11 C6          -3.2280    -2.0220    -0.3100 ca         1 4XB      -0.263000
     12 C7          -3.0300    -0.6610    -0.1230 ca         1 4XB       0.219100
     13 C8          -5.3640    -0.0820    -0.1470 c6         1 4XB       0.154100
     14 C9          -6.1090     1.1690    -0.5810 c6         1 4XB      -0.131400
     15 C10         -7.6050     0.8660    -0.6820 c6         1 4XB       0.149800
     16 C11         -7.4440    -0.8480     0.9960 c6         1 4XB       0.149800
     17 C12         -5.9400    -0.6110     1.1590 c6         1 4XB      -0.131400
     18 C13         -1.7020    -0.1990    -0.0500 ca         1 4XB      -0.181800
     19 C14          1.3770     1.7680     0.2130 c          1 4XB       0.689300
     20 C15          8.1690    -2.1430     1.1590 c3         1 4XB       0.125700
     21 C19          3.7290     1.9320     0.1240 c3         1 4XB       0.189700
     22 C20          4.8730     1.0350    -0.2370 ca         1 4XB      -0.063300
     23 C21          5.3060     0.9530    -1.5600 ca         1 4XB      -0.141000
     24 C22          6.3550     0.1080    -1.8830 ca         1 4XB      -0.096000
     25 C23          6.9820    -0.6600    -0.9090 ca         1 4XB      -0.204000
     26 C24          6.5480    -0.5810     0.4120 ca         1 4XB       0.136100
     27 C25          5.4920     0.2710     0.7390 ca         1 4XB      -0.136000
     28 OAQ          7.0840    -1.2790     1.4310 os         1 4XB      -0.317900
     29 OAR          2.5300     1.1440     0.0240 os         1 4XB      -0.395900
     30 H           -2.5270     2.5430    -0.5000 hc         1 4XB       0.058700
     31 HA          -2.4020     2.3630     1.2360 hc         1 4XB       0.058700
     32 HB          -1.1410     3.2250     0.3550 hc         1 4XB       0.058700
     33 HN          -8.1500     1.0300     1.2590 hn         1 4XB       0.351800
     34 H4           0.0070    -3.1530    -0.4630 ha         1 4XB       0.156000
     35 H5          -2.3430    -3.9500    -0.5720 ha         1 4XB       0.133000
     36 H6          -4.2230    -2.4380    -0.3700 ha         1 4XB       0.138000
     37 H8          -5.4790    -0.8380    -0.9350 h1         1 4XB       0.049700
     38 H9          -5.9450     1.9660     0.1510 hc         1 4XB       0.059200
     39 H9A         -5.7310     1.5210    -1.5450 hc         1 4XB       0.059200
     40 H10         -7.7730     0.1450    -1.4900 h1         1 4XB       0.056200
     41 H10A        -8.1490     1.7710    -0.9560 h1         1 4XB       0.056200
     42 H11         -7.8710    -1.1850     1.9420 h1         1 4XB       0.056200
     43 H11A        -7.6050    -1.6570     0.2750 h1         1 4XB       0.056200
     44 H12         -5.4500    -1.5390     1.4660 hc         1 4XB       0.059200
     45 H12A        -5.7680     0.1260     1.9500 hc         1 4XB       0.059200
     46 H15          7.9000    -2.9280     0.4470 h1         1 4XB       0.040367
     47 H15A         9.0370    -1.6010     0.7740 h1         1 4XB       0.040367
     48 H15B         8.4390    -2.6070     2.1050 h1         1 4XB       0.040367
     49 H19          3.8300     2.3140     1.1410 h1         1 4XB       0.057700
     50 H19A         3.6730     2.7820    -0.5580 h1         1 4XB       0.057700
     51 H21          4.8300     1.5520    -2.3260 ha         1 4XB       0.136000
     52 H22          6.7010     0.0440    -2.9060 ha         1 4XB       0.131000
     53 H23          7.8040    -1.3030    -1.1950 ha         1 4XB       0.134000
     54 H25          5.1630     0.3330     1.7710 ha         1 4XB       0.148000
@<TRIPOS>BOND
     1     1     4 1   
     2     1    30 1   
     3     1    31 1   
     4     1    32 1   
     5     2    15 1   
     6     2    16 1   
     7     2    33 1   
     8     3     6 1   
     9     3     8 1   
    10     4     6 2   
    11     4    18 1   
    12     5    12 1   
    13     5    13 1   
    14     6    19 1   
    15     7    19 2   
    16     8     9 ar  
    17     8    18 ar  
    18     9    10 ar  
    19     9    34 1   
    20    10    11 ar  
    21    10    35 1   
    22    11    12 ar  
    23    11    36 1   
    24    12    18 ar  
    25    13    14 1   
    26    13    17 1   
    27    13    37 1   
    28    14    15 1   
    29    14    38 1   
    30    14    39 1   
    31    15    40 1   
    32    15    41 1   
    33    16    17 1   
    34    16    42 1   
    35    16    43 1   
    36    17    44 1   
    37    17    45 1   
    38    19    29 1   
    39    20    28 1   
    40    20    46 1   
    41    20    47 1   
    42    20    48 1   
    43    21    22 1   
    44    21    29 1   
    45    21    49 1   
    46    21    50 1   
    47    22    23 ar  
    48    22    27 ar  
    49    23    24 ar  
    50    23    51 1   
    51    24    25 ar  
    52    24    52 1   
    53    25    26 ar  
    54    25    53 1   
    55    26    27 ar  
    56    26    28 1   
    57    27    54 1   
@<TRIPOS>SUBSTRUCTURE
     1 4XB         1 TEMP              0 ****  ****    0 ROOT
