@<TRIPOS>MOLECULE
4XC
   36    37     1     0     0
SMALL
No Charge or Current Charge


@<TRIPOS>ATOM
      1 CAJ          0.0220     1.5060    -0.3180 c6         1 4XC       0.167800
      2 CAH         -1.3340     2.0970     0.1260 c6         1 4XC      -0.031100
      3 CAO         -2.4860     1.0960     0.0460 ca         1 4XC      -0.028300
      4 CAF         -3.8120     1.5630     0.1050 ca         1 4XC      -0.152000
      5 CAD         -4.8840     0.6620     0.0430 ca         1 4XC      -0.071000
      6 CAE         -4.6320    -0.7130    -0.0800 ca         1 4XC      -0.179000
      7 CAN         -3.3150    -1.1940    -0.1370 ca         1 4XC       0.285000
      8 NAB         -3.1260    -2.5480    -0.2720 nv         1 4XC      -1.064000
      9 CAP         -2.2280    -0.2910    -0.0640 ca         1 4XC      -0.131300
     10 CAK         -0.7770    -0.7950    -0.1380 c6         1 4XC       0.221100
     11 NAQ          0.2550     0.1800     0.3140 n3         1 4XC      -0.719600
     12 CAI          1.6270    -0.3540     0.1270 c3         1 4XC       0.178800
     13 CAG          2.7330     0.4670     0.8190 c3         1 4XC      -0.158400
     14 CAM          4.0730    -0.2560     0.7080 c          1 4XC       0.594100
     15 OAC          4.3440    -1.2480     1.3700 o          1 4XC      -0.608100
     16 NAL          4.9750     0.3080    -0.1650 ns         1 4XC      -0.508900
     17 CAA          6.3210    -0.2140    -0.4130 c3         1 4XC       0.095300
     18 H1           0.0340     1.4090    -1.4140 h1         1 4XC       0.030700
     19 H2           0.8060     2.2250    -0.0470 h1         1 4XC       0.030700
     20 H3          -1.2460     2.4510     1.1620 hc         1 4XC       0.055200
     21 H4          -1.5580     2.9830    -0.4840 hc         1 4XC       0.055200
     22 H5          -4.0110     2.6280     0.2000 ha         1 4XC       0.111000
     23 H6          -5.9080     1.0280     0.0880 ha         1 4XC       0.110000
     24 H7          -5.4680    -1.4050    -0.1330 ha         1 4XC       0.111000
     25 H8          -3.9250    -3.1580    -0.4330 hn         1 4XC       0.440000
     26 H9          -2.1980    -2.9260    -0.4430 hn         1 4XC       0.440000
     27 H10         -0.6910    -1.7090     0.4680 h1         1 4XC       0.038700
     28 H11         -0.5800    -1.0870    -1.1800 h1         1 4XC       0.038700
     29 H13          1.6710    -1.3740     0.5350 h1         1 4XC       0.045700
     30 H14          1.8600    -0.4310    -0.9450 h1         1 4XC       0.045700
     31 H15          2.8060     1.4530     0.3470 hc         1 4XC       0.063200
     32 H16          2.4730     0.5720     1.8780 hc         1 4XC       0.063200
     33 H17          4.6760     1.1370    -0.6650 hn         1 4XC       0.313500
     34 H18          6.8980    -0.2080     0.5210 h1         1 4XC       0.039700
     35 H19          6.2550    -1.2410    -0.7950 h1         1 4XC       0.039700
     36 H20          6.8280     0.4160    -1.1550 h1         1 4XC       0.039700
@<TRIPOS>BOND
     1     1     2 1   
     2     1    11 1   
     3     1    18 1   
     4     1    19 1   
     5     2     3 1   
     6     2    20 1   
     7     2    21 1   
     8     3     4 ar  
     9     3     9 ar  
    10     4     5 ar  
    11     4    22 1   
    12     5     6 ar  
    13     5    23 1   
    14     6     7 ar  
    15     6    24 1   
    16     7     8 1   
    17     7     9 ar  
    18     8    25 1   
    19     8    26 1   
    20     9    10 1   
    21    10    11 1   
    22    10    27 1   
    23    10    28 1   
    24    11    12 1   
    25    12    13 1   
    26    12    29 1   
    27    12    30 1   
    28    13    14 1   
    29    13    31 1   
    30    13    32 1   
    31    14    15 2   
    32    14    16 1   
    33    16    17 1   
    34    16    33 1   
    35    17    34 1   
    36    17    35 1   
    37    17    36 1   
@<TRIPOS>SUBSTRUCTURE
     1 4XC         1 TEMP              0 ****  ****    0 ROOT
