@<TRIPOS>MOLECULE
4XC
   36    37     1     0     0
SMALL
bcc


@<TRIPOS>ATOM
      1 CAJ         -0.0370     1.3490    -0.6800 c6         1 4XC       0.167800
      2 CAH         -1.2590     2.0430    -0.1090 c6         1 4XC      -0.031100
      3 CAO         -2.4250     1.1020     0.0210 ca         1 4XC      -0.028300
      4 CAF         -3.7170     1.6030     0.1800 ca         1 4XC      -0.170000
      5 CAD         -4.7870     0.7310     0.2930 ca         1 4XC      -0.089000
      6 CAE         -4.5850    -0.6390     0.2290 ca         1 4XC      -0.197000
      7 CAN         -3.2990    -1.1560     0.0650 ca         1 4XC       0.146600
      8 NAB         -3.0910    -2.5260     0.0460 nv         1 4XC      -0.815200
      9 CAP         -2.2070    -0.2720    -0.0180 ca         1 4XC      -0.131300
     10 CAK         -0.8210    -0.8400    -0.1600 c6         1 4XC       0.221100
     11 NAQ          0.2200     0.1380     0.0760 n3         1 4XC      -0.719600
     12 CAI          1.5280    -0.4350    -0.1760 c3         1 4XC       0.178800
     13 CAG          2.6400     0.3400     0.5190 c3         1 4XC      -0.158400
     14 CAM          3.9850    -0.3390     0.3600 c          1 4XC       0.661100
     15 OAC          4.1140    -1.5560     0.4300 o          1 4XC      -0.608100
     16 NAL          5.0260     0.4790     0.1600 ns         1 4XC      -0.575900
     17 CAA          6.3830    -0.0010     0.0490 c3         1 4XC       0.095300
     18 H1          -0.1850     1.1330    -1.7520 h1         1 4XC       0.030700
     19 H2           0.8210     2.0170    -0.6100 h1         1 4XC       0.030700
     20 H3          -1.0070     2.4570     0.8720 hc         1 4XC       0.055200
     21 H4          -1.5370     2.8920    -0.7390 hc         1 4XC       0.055200
     22 H5          -3.8760     2.6740     0.2090 ha         1 4XC       0.129000
     23 H6          -5.7910     1.1160     0.4170 ha         1 4XC       0.128000
     24 H7          -5.4270    -1.3170     0.3020 ha         1 4XC       0.129000
     25 H8          -3.9220    -3.0690    -0.1270 hn         1 4XC       0.384800
     26 H9          -2.3370    -2.8480    -0.5410 hn         1 4XC       0.384800
     27 H10         -0.6920    -1.6570     0.5580 h1         1 4XC       0.038700
     28 H11         -0.7210    -1.2990    -1.1640 h1         1 4XC       0.038700
     29 H13          1.5290    -1.4560     0.2090 h1         1 4XC       0.045700
     30 H14          1.7370    -0.5120    -1.2560 h1         1 4XC       0.045700
     31 H15          2.6920     1.3700     0.1640 hc         1 4XC       0.063200
     32 H16          2.4180     0.3910     1.5890 hc         1 4XC       0.063200
     33 H17          4.8680     1.4710     0.1140 hn         1 4XC       0.313500
     34 H18          6.7170    -0.4890     0.9660 h1         1 4XC       0.039700
     35 H19          6.4920    -0.7090    -0.7730 h1         1 4XC       0.039700
     36 H20          7.0330     0.8470    -0.1420 h1         1 4XC       0.039700
@<TRIPOS>BOND
     1     1     2 1   
     2     1    11 1   
     3     1    18 1   
     4     1    19 1   
     5     2     3 1   
     6     2    20 1   
     7     2    21 1   
     8     3     4 ar  
     9     3     9 ar  
    10     4     5 ar  
    11     4    22 1   
    12     5     6 ar  
    13     5    23 1   
    14     6     7 ar  
    15     6    24 1   
    16     7     8 1   
    17     7     9 ar  
    18     8    25 1   
    19     8    26 1   
    20     9    10 1   
    21    10    11 1   
    22    10    27 1   
    23    10    28 1   
    24    11    12 1   
    25    12    13 1   
    26    12    29 1   
    27    12    30 1   
    28    13    14 1   
    29    13    31 1   
    30    13    32 1   
    31    14    15 2   
    32    14    16 1   
    33    16    17 1   
    34    16    33 1   
    35    17    34 1   
    36    17    35 1   
    37    17    36 1   
@<TRIPOS>SUBSTRUCTURE
     1 4XC         1 TEMP              0 ****  ****    0 ROOT
