@<TRIPOS>MOLECULE
4XD
   33    34     1     0     0
SMALL
abcg2


@<TRIPOS>ATOM
      1 CAI          0.8280     0.9660    -1.2880 c6         1 4XD       0.169800
      2 CAG         -0.1820     1.8780    -0.6190 c6         1 4XD      -0.031100
      3 CAM         -1.4210     1.1280    -0.2110 ca         1 4XD      -0.026300
      4 CAE         -2.6060     1.8200     0.0360 ca         1 4XD      -0.153000
      5 CAC         -3.7460     1.1270     0.4050 ca         1 4XD      -0.071000
      6 CAD         -3.7200    -0.2530     0.5220 ca         1 4XD      -0.181000
      7 CAL         -2.5450    -0.9630     0.2670 ca         1 4XD       0.288000
      8 NAB         -2.5490    -2.3470     0.3090 nv         1 4XD      -1.070000
      9 CAN         -1.3790    -0.2590    -0.0900 ca         1 4XD      -0.131300
     10 CAJ         -0.1160    -1.0260    -0.3770 c6         1 4XD       0.224100
     11 NAO          1.0600    -0.1860    -0.4420 n3         1 4XD      -0.708600
     12 CAH          2.2230    -0.9610    -0.8280 c3         1 4XD       0.171800
     13 CAF          3.5410    -0.3200    -0.4510 c3         1 4XD       0.162600
     14 OAK          3.6400    -0.2250     0.9460 os         1 4XD      -0.435000
     15 CAA          4.8600     0.3320     1.3590 c3         1 4XD       0.143900
     16 H1           0.4720     0.6720    -2.2910 h1         1 4XD       0.031700
     17 H2           1.7630     1.5080    -1.4330 h1         1 4XD       0.031700
     18 H3           0.2790     2.3340     0.2620 hc         1 4XD       0.056200
     19 H4          -0.4480     2.6990    -1.2880 hc         1 4XD       0.056200
     20 H5          -2.6290     2.8980    -0.0660 ha         1 4XD       0.111000
     21 H6          -4.6680     1.6610     0.6030 ha         1 4XD       0.109000
     22 H7          -4.6150    -0.7910     0.8110 ha         1 4XD       0.109000
     23 H8          -3.3270    -2.7490     0.8090 hn         1 4XD       0.442000
     24 H9          -1.6870    -2.7910     0.5830 hn         1 4XD       0.442000
     25 H10          0.0580    -1.7680     0.4120 h1         1 4XD       0.034200
     26 H11         -0.2590    -1.6090    -1.3080 h1         1 4XD       0.034200
     27 H13          2.1650    -1.9350    -0.3340 h1         1 4XD       0.037700
     28 H14          2.2400    -1.1690    -1.9110 h1         1 4XD       0.037700
     29 H15          4.3510    -0.9420    -0.8600 h1         1 4XD       0.018700
     30 H16          3.6550     0.6690    -0.9160 h1         1 4XD       0.018700
     31 H17          4.8680     0.3610     2.4490 h1         1 4XD       0.026033
     32 H18          5.7210    -0.2610     1.0240 h1         1 4XD       0.026033
     33 H19          4.9950     1.3550     0.9870 h1         1 4XD       0.026033
@<TRIPOS>BOND
     1     1     2 1   
     2     1    11 1   
     3     1    16 1   
     4     1    17 1   
     5     2     3 1   
     6     2    18 1   
     7     2    19 1   
     8     3     4 ar  
     9     3     9 ar  
    10     4     5 ar  
    11     4    20 1   
    12     5     6 ar  
    13     5    21 1   
    14     6     7 ar  
    15     6    22 1   
    16     7     8 1   
    17     7     9 ar  
    18     8    23 1   
    19     8    24 1   
    20     9    10 1   
    21    10    11 1   
    22    10    25 1   
    23    10    26 1   
    24    11    12 1   
    25    12    13 1   
    26    12    27 1   
    27    12    28 1   
    28    13    14 1   
    29    13    29 1   
    30    13    30 1   
    31    14    15 1   
    32    15    31 1   
    33    15    32 1   
    34    15    33 1   
@<TRIPOS>SUBSTRUCTURE
     1 4XD         1 TEMP              0 ****  ****    0 ROOT
