@<TRIPOS>MOLECULE
4XD
   33    34     1     0     0
SMALL
No Charge or Current Charge


@<TRIPOS>ATOM
      1 CAI          0.9130     0.9780    -1.1000 c6         1 4XD       0.169800
      2 CAG         -0.1920     1.8740    -0.4980 c6         1 4XD      -0.031100
      3 CAM         -1.4770     1.1120    -0.1710 ca         1 4XD      -0.026300
      4 CAE         -2.6620     1.8310     0.0700 ca         1 4XD      -0.153000
      5 CAC         -3.8500     1.1540     0.3790 ca         1 4XD      -0.071000
      6 CAD         -3.8560    -0.2470     0.4470 ca         1 4XD      -0.181000
      7 CAL         -2.6800    -0.9770     0.2140 ca         1 4XD       0.288000
      8 NAB         -2.7460    -2.3470     0.2830 nv         1 4XD      -1.070000
      9 CAN         -1.4760    -0.3000    -0.0900 ca         1 4XD      -0.131300
     10 CAJ         -0.1810    -1.0810    -0.3700 c6         1 4XD       0.224100
     11 NAO          1.0670    -0.2720    -0.3140 n3         1 4XD      -0.708600
     12 CAH          2.2660    -1.0810    -0.6890 c3         1 4XD       0.171800
     13 CAF          3.6560    -0.4110    -0.4830 c3         1 4XD       0.162600
     14 OAK          3.8390    -0.0970     0.9120 os         1 4XD      -0.435000
     15 CAA          5.0900     0.5390     1.2200 c3         1 4XD       0.143900
     16 H1           0.6580     0.7400    -2.1430 h1         1 4XD       0.031700
     17 H2           1.8460     1.5570    -1.1180 h1         1 4XD       0.031700
     18 H3           0.1880     2.3360     0.4230 hc         1 4XD       0.056200
     19 H4          -0.4050     2.6990    -1.1910 hc         1 4XD       0.056200
     20 H5          -2.6610     2.9180     0.0180 ha         1 4XD       0.111000
     21 H6          -4.7650     1.7140     0.5630 ha         1 4XD       0.109000
     22 H7          -4.7820    -0.7650     0.6810 ha         1 4XD       0.109000
     23 H8          -3.5950    -2.7950     0.6230 hn         1 4XD       0.442000
     24 H9          -1.8950    -2.9030     0.2660 hn         1 4XD       0.442000
     25 H10         -0.1020    -1.9050     0.3540 h1         1 4XD       0.034200
     26 H11         -0.2800    -1.5420    -1.3640 h1         1 4XD       0.034200
     27 H13          2.2690    -2.0130    -0.1080 h1         1 4XD       0.037700
     28 H14          2.1910    -1.3740    -1.7450 h1         1 4XD       0.037700
     29 H15          4.4340    -1.1100    -0.8180 h1         1 4XD       0.018700
     30 H16          3.7340     0.4920    -1.1010 h1         1 4XD       0.018700
     31 H17          5.1570     0.7460     2.2950 h1         1 4XD       0.026033
     32 H18          5.9330    -0.1060     0.9420 h1         1 4XD       0.026033
     33 H19          5.1860     1.4900     0.6810 h1         1 4XD       0.026033
@<TRIPOS>BOND
     1     1     2 1   
     2     1    11 1   
     3     1    16 1   
     4     1    17 1   
     5     2     3 1   
     6     2    18 1   
     7     2    19 1   
     8     3     4 ar  
     9     3     9 ar  
    10     4     5 ar  
    11     4    20 1   
    12     5     6 ar  
    13     5    21 1   
    14     6     7 ar  
    15     6    22 1   
    16     7     8 1   
    17     7     9 ar  
    18     8    23 1   
    19     8    24 1   
    20     9    10 1   
    21    10    11 1   
    22    10    25 1   
    23    10    26 1   
    24    11    12 1   
    25    12    13 1   
    26    12    27 1   
    27    12    28 1   
    28    13    14 1   
    29    13    29 1   
    30    13    30 1   
    31    14    15 1   
    32    15    31 1   
    33    15    32 1   
    34    15    33 1   
@<TRIPOS>SUBSTRUCTURE
     1 4XD         1 TEMP              0 ****  ****    0 ROOT
