@<TRIPOS>MOLECULE
4XE
   37    38     1     0     0
SMALL
No Charge or Current Charge


@<TRIPOS>ATOM
      1 C2          -0.6700    -0.4510    -0.7020 c          1 4XE       0.607100
      2 C3           0.4410     0.6160    -0.4130 c3         1 4XE       0.081800
      3 N4           1.8790     0.1840    -0.3230 n3         1 4XE      -0.697600
      4 C5           2.1490    -0.7050     0.8590 c6         1 4XE       0.137300
      5 C6           3.5930    -1.2800     0.8580 c6         1 4XE       0.100100
      6 C8           4.3130     0.9120    -0.4490 c6         1 4XE       0.100100
      7 C11         -3.1510    -0.9710    -0.9460 c6         1 4XE       0.093500
      8 C12         -4.0150    -1.0670     0.3350 c6         1 4XE      -0.096400
      9 C13         -4.5050     0.3330     0.7810 c6         1 4XE      -0.076400
     10 C14         -3.3180     1.3200     0.9110 c6         1 4XE      -0.096400
     11 C15         -2.4810     1.3500    -0.3900 c6         1 4XE       0.093500
     12 O1          -0.3930    -1.6300    -0.9110 o          1 4XE      -0.596100
     13 N7           4.6000    -0.0970     0.7060 ny         1 4XE      -0.820000
     14 C9           2.8240     1.3500    -0.3680 c6         1 4XE       0.137300
     15 N10         -2.0230    -0.0220    -0.7450 n          1 4XE      -0.402800
     16 H16          0.3360     1.3600    -1.2140 h1         1 4XE       0.064700
     17 H17          0.1580     1.1190     0.5210 h1         1 4XE       0.064700
     18 H19          1.9950    -0.1490     1.7960 h1         1 4XE       0.077950
     19 H18          1.4510    -1.5540     0.8820 h1         1 4XE       0.077950
     20 H20          3.8270    -1.8250     1.7800 hx         1 4XE       0.110450
     21 H21          3.7430    -1.9450     0.0010 hx         1 4XE       0.110450
     22 H25          5.0030     1.7590    -0.3560 hx         1 4XE       0.110450
     23 H24          4.5120     0.3900    -1.3910 hx         1 4XE       0.110450
     24 H28         -3.7730    -0.6160    -1.7810 h1         1 4XE       0.058200
     25 H31         -4.8730    -1.7300     0.1590 hc         1 4XE       0.052450
     26 H30         -3.4230    -1.5260     1.1400 hc         1 4XE       0.052450
     27 H32         -5.2280     0.7210     0.0490 hc         1 4XE       0.053200
     28 H33         -5.0400     0.2580     1.7380 hc         1 4XE       0.053200
     29 H35         -3.6890     2.3280     1.1400 hc         1 4XE       0.052450
     30 H34         -2.6760     1.0220     1.7520 hc         1 4XE       0.052450
     31 H37         -3.1050     1.7360    -1.2100 h1         1 4XE       0.058200
     32 H36         -1.6460     2.0520    -0.2750 h1         1 4XE       0.058200
     33 H23          4.6300     0.4290     1.6060 hn         1 4XE       0.501000
     34 H22          5.5670    -0.4740     0.6080 hn         1 4XE       0.501000
     35 H26          2.6090     1.9850    -1.2400 h1         1 4XE       0.077950
     36 H27          2.6910     1.9820     0.5220 h1         1 4XE       0.077950
     37 H29         -2.7880    -1.9720    -1.2200 h1         1 4XE       0.058200
@<TRIPOS>BOND
     1     1     2 1   
     2     1    12 2   
     3     1    15 1   
     4     2     3 1   
     5     2    16 1   
     6     2    17 1   
     7     3     4 1   
     8     3    14 1   
     9     4     5 1   
    10     4    18 1   
    11     4    19 1   
    12     5    13 1   
    13     5    20 1   
    14     5    21 1   
    15     6    13 1   
    16     6    14 1   
    17     6    22 1   
    18     6    23 1   
    19     7     8 1   
    20     7    15 1   
    21     7    24 1   
    22     7    37 1   
    23     8     9 1   
    24     8    25 1   
    25     8    26 1   
    26     9    10 1   
    27     9    27 1   
    28     9    28 1   
    29    10    11 1   
    30    10    29 1   
    31    10    30 1   
    32    11    15 1   
    33    11    31 1   
    34    11    32 1   
    35    13    33 1   
    36    13    34 1   
    37    14    35 1   
    38    14    36 1   
@<TRIPOS>SUBSTRUCTURE
     1 4XE         1 TEMP              0 ****  ****    0 ROOT
