@<TRIPOS>MOLECULE
4XE
   37    38     1     0     0
SMALL
abcg2


@<TRIPOS>ATOM
      1 C2          -0.5900    -0.3500    -0.6420 c          1 4XE       0.607100
      2 C3           0.4120     0.7330    -0.2440 c3         1 4XE       0.081800
      3 N4           1.7670     0.2390    -0.2330 n3         1 4XE      -0.697600
      4 C5           2.0590    -0.5820     0.9270 c6         1 4XE       0.137300
      5 C6           3.4230    -1.2200     0.7890 c6         1 4XE       0.100100
      6 C8           4.1270     0.7510    -0.5170 c6         1 4XE       0.100100
      7 C11         -2.9370    -0.9720    -0.8980 c6         1 4XE       0.093500
      8 C12         -3.8550    -1.0850     0.3130 c6         1 4XE      -0.096400
      9 C13         -4.4210     0.2760     0.7020 c6         1 4XE      -0.076400
     10 C14         -3.3040     1.2970     0.8810 c6         1 4XE      -0.096400
     11 C15         -2.4010     1.3340    -0.3450 c6         1 4XE       0.093500
     12 O1          -0.2120    -1.4760    -0.9340 o          1 4XE      -0.596100
     13 N7           4.4550    -0.1610     0.6120 ny         1 4XE      -0.820000
     14 C9           2.7350     1.3140    -0.3320 c6         1 4XE       0.137300
     15 N10         -1.8890     0.0070    -0.6510 n          1 4XE      -0.402800
     16 H16          0.3490     1.5470    -0.9710 h1         1 4XE       0.064700
     17 H17          0.1210     1.1680     0.7250 h1         1 4XE       0.064700
     18 H19          2.0160    -0.0000     1.8630 h1         1 4XE       0.077950
     19 H18          1.3310    -1.3870     1.0140 h1         1 4XE       0.077950
     20 H20          3.6870    -1.7950     1.6730 hx         1 4XE       0.110450
     21 H21          3.4720    -1.8610    -0.0880 hx         1 4XE       0.110450
     22 H25          4.8770     1.5380    -0.5380 hx         1 4XE       0.110450
     23 H24          4.1960     0.1630    -1.4310 hx         1 4XE       0.110450
     24 H28         -3.5130    -0.6550    -1.7740 h1         1 4XE       0.058200
     25 H31         -4.6600    -1.7880     0.0870 hc         1 4XE       0.052450
     26 H30         -3.2900    -1.5080     1.1500 hc         1 4XE       0.052450
     27 H32         -5.1010     0.6210    -0.0840 hc         1 4XE       0.053200
     28 H33         -5.0150     0.1980     1.6140 hc         1 4XE       0.053200
     29 H35         -3.7150     2.2950     1.0490 hc         1 4XE       0.052450
     30 H34         -2.7030     1.0480     1.7610 hc         1 4XE       0.052450
     31 H37         -2.9700     1.6880    -1.2110 h1         1 4XE       0.058200
     32 H36         -1.5900     2.0430    -0.2020 h1         1 4XE       0.058200
     33 H23          4.5420     0.3780     1.4760 hn         1 4XE       0.501000
     34 H22          5.3700    -0.5860     0.4640 hn         1 4XE       0.501000
     35 H26          2.5150     1.9320    -1.2040 h1         1 4XE       0.077950
     36 H27          2.7190     1.9780     0.5480 h1         1 4XE       0.077950
     37 H29         -2.4850    -1.9310    -1.1370 h1         1 4XE       0.058200
@<TRIPOS>BOND
     1     1     2 1   
     2     1    12 2   
     3     1    15 1   
     4     2     3 1   
     5     2    16 1   
     6     2    17 1   
     7     3     4 1   
     8     3    14 1   
     9     4     5 1   
    10     4    18 1   
    11     4    19 1   
    12     5    13 1   
    13     5    20 1   
    14     5    21 1   
    15     6    13 1   
    16     6    14 1   
    17     6    22 1   
    18     6    23 1   
    19     7     8 1   
    20     7    15 1   
    21     7    24 1   
    22     7    37 1   
    23     8     9 1   
    24     8    25 1   
    25     8    26 1   
    26     9    10 1   
    27     9    27 1   
    28     9    28 1   
    29    10    11 1   
    30    10    29 1   
    31    10    30 1   
    32    11    15 1   
    33    11    31 1   
    34    11    32 1   
    35    13    33 1   
    36    13    34 1   
    37    14    35 1   
    38    14    36 1   
@<TRIPOS>SUBSTRUCTURE
     1 4XE         1 TEMP              0 ****  ****    0 ROOT
