@<TRIPOS>MOLECULE
4XF
   26    26     1     0     0
SMALL
No Charge or Current Charge


@<TRIPOS>ATOM
      1 C1          -3.5410     0.3070     1.5140 c3         1 4XF      -0.124100
      2 C2          -3.0130     0.3580     0.0670 c3         1 4XF       0.002300
      3 N4          -4.0030    -0.3450    -0.8650 nz         1 4XF      -0.964000
      4 C8          -1.5690    -0.2370    -0.0290 c          1 4XF       0.598100
      5 O9          -1.3770    -1.4470    -0.0650 o          1 4XF      -0.526100
      6 C11          0.8130     0.5580    -0.2230 ca         1 4XF       0.501900
      7 C12          1.5910     1.4490    -0.9800 ca         1 4XF      -0.254000
      8 C13          2.9880     1.3090    -0.9760 ca         1 4XF       0.000000
      9 C14          3.5310     0.2850    -0.1870 ca         1 4XF      -0.232000
     10 C15          2.6570    -0.5180     0.5480 ca         1 4XF       0.643900
     11 N10         -0.5770     0.7110    -0.1500 ns         1 4XF      -0.295900
     12 N16          3.0540    -1.5150     1.3370 nv         1 4XF      -1.049900
     13 N17          1.3390    -0.4050     0.5570 nb         1 4XF      -0.766000
     14 H19         -4.5280     0.7800     1.5860 hc         1 4XF       0.086367
     15 H18         -3.6280    -0.7280     1.8660 hc         1 4XF       0.086367
     16 H20         -2.8630     0.8410     2.1920 hc         1 4XF       0.086367
     17 H3          -2.9350     1.4070    -0.2390 hx         1 4XF       0.108700
     18 H7          -4.9630     0.0340    -0.8190 hn         1 4XF       0.519333
     19 H5          -3.7420    -0.2920    -1.8640 hn         1 4XF       0.519333
     20 H22          1.1170     2.2320    -1.5650 ha         1 4XF       0.125000
     21 H23          3.6260     1.9720    -1.5580 ha         1 4XF       0.134000
     22 H24          4.6040     0.1260    -0.1380 ha         1 4XF       0.141000
     23 H21         -0.8890     1.6700    -0.1920 hn         1 4XF       0.162000
     24 H25          3.9530    -1.9350     1.1300 hn         1 4XF       0.488500
     25 H26          2.3150    -2.1500     1.6120 hn         1 4XF       0.488500
     26 H2          -4.0960    -1.3560    -0.6720 hn         1 4XF       0.519333
@<TRIPOS>BOND
     1     1     2 1   
     2     1    14 1   
     3     1    15 1   
     4     1    16 1   
     5     2     3 1   
     6     2     4 1   
     7     2    17 1   
     8     3    18 1   
     9     3    19 1   
    10     3    26 1   
    11     4     5 2   
    12     4    11 1   
    13     6     7 ar  
    14     6    11 1   
    15     6    13 ar  
    16     7     8 ar  
    17     7    20 1   
    18     8     9 ar  
    19     8    21 1   
    20     9    10 ar  
    21     9    22 1   
    22    10    12 1   
    23    10    13 ar  
    24    11    23 1   
    25    12    24 1   
    26    12    25 1   
@<TRIPOS>SUBSTRUCTURE
     1 4XF         1 TEMP              0 ****  ****    0 ROOT
