@<TRIPOS>MOLECULE
4XF
   26    26     1     0     0
SMALL
bcc


@<TRIPOS>ATOM
      1 C1          -3.4320     0.8140     1.2670 c3         1 4XF      -0.124100
      2 C2          -3.0110     0.3390    -0.1140 c3         1 4XF       0.030500
      3 N4          -3.9280    -0.7270    -0.5850 nz         1 4XF      -0.826600
      4 C8          -1.6010    -0.2540    -0.0740 c          1 4XF       0.665100
      5 O9          -1.4440    -1.4350     0.1450 o          1 4XF      -0.526100
      6 C11          0.7510     0.5480    -0.1720 ca         1 4XF       0.567200
      7 C12          1.5180     1.6450    -0.5480 ca         1 4XF      -0.337300
      8 C13          2.8970     1.5050    -0.4620 ca         1 4XF      -0.018000
      9 C14          3.4510     0.3230    -0.0200 ca         1 4XF      -0.315300
     10 C15          2.5780    -0.7170     0.3390 ca         1 4XF       0.709200
     11 N10         -0.6400     0.6790    -0.2530 ns         1 4XF      -0.529400
     12 N16          3.0520    -1.8930     0.8290 nv         1 4XF      -0.939500
     13 N17          1.2530    -0.5930     0.2590 nb         1 4XF      -0.766000
     14 H19         -4.4490     1.2040     1.2440 hc         1 4XF       0.086367
     15 H18         -3.3780     0.0080     1.9980 hc         1 4XF       0.086367
     16 H20         -2.7760     1.6180     1.5950 hc         1 4XF       0.086367
     17 H3          -3.0890     1.1510    -0.8370 hx         1 4XF       0.108700
     18 H7          -4.9030    -0.4360    -0.5080 hn         1 4XF       0.464133
     19 H5          -3.7700    -0.9680    -1.5640 hn         1 4XF       0.464133
     20 H22          1.0630     2.5620    -0.8980 ha         1 4XF       0.143000
     21 H23          3.5380     2.3290    -0.7480 ha         1 4XF       0.152000
     22 H24          4.5220     0.1940     0.0500 ha         1 4XF       0.159000
     23 H21         -0.9550     1.6020    -0.5150 hn         1 4XF       0.328500
     24 H25          4.0160    -2.1260     0.6630 hn         1 4XF       0.433300
     25 H26          2.4200    -2.6760     0.8370 hn         1 4XF       0.433300
     26 H2          -3.8200    -1.5860    -0.0410 hn         1 4XF       0.464133
@<TRIPOS>BOND
     1     1     2 1   
     2     1    14 1   
     3     1    15 1   
     4     1    16 1   
     5     2     3 1   
     6     2     4 1   
     7     2    17 1   
     8     3    18 1   
     9     3    19 1   
    10     3    26 1   
    11     4     5 2   
    12     4    11 1   
    13     6     7 ar  
    14     6    11 1   
    15     6    13 ar  
    16     7     8 ar  
    17     7    20 1   
    18     8     9 ar  
    19     8    21 1   
    20     9    10 ar  
    21     9    22 1   
    22    10    12 1   
    23    10    13 ar  
    24    11    23 1   
    25    12    24 1   
    26    12    25 1   
@<TRIPOS>SUBSTRUCTURE
     1 4XF         1 TEMP              0 ****  ****    0 ROOT
