@<TRIPOS>MOLECULE
4XG
   40    41     1     0     0
SMALL
abcg2


@<TRIPOS>ATOM
      1 CAK         -0.1420     1.2550    -0.8890 c6         1 4XG       0.169800
      2 CAH         -1.2940     2.0110    -0.2550 c6         1 4XG      -0.032100
      3 CAN         -2.4850     1.1220    -0.0210 ca         1 4XG      -0.027300
      4 CAF         -3.7430     1.6780     0.2130 ca         1 4XG      -0.151000
      5 CAD         -4.8350     0.8530     0.4220 ca         1 4XG      -0.071000
      6 CAE         -4.6910    -0.5260     0.3800 ca         1 4XG      -0.180000
      7 CAM         -3.4410    -1.0980     0.1420 ca         1 4XG       0.283000
      8 NAC         -3.2880    -2.4750     0.1450 nv         1 4XG      -1.064000
      9 CAO         -2.3250    -0.2600    -0.0390 ca         1 4XG      -0.130300
     10 CAL         -0.9750    -0.8870    -0.2600 c6         1 4XG       0.221100
     11 NAQ          0.1180     0.0510    -0.1240 n3         1 4XG      -0.715600
     12 CAJ          1.3830    -0.5810    -0.4530 c3         1 4XG       0.171800
     13 CAG          2.5870     0.1370     0.1420 c3         1 4XG      -0.078400
     14 CAI          3.8750    -0.6110    -0.1750 c3         1 4XG       0.165800
     15 NAP          5.0510    -0.0380     0.4540 n3         1 4XG      -0.712600
     16 CAB          6.1640    -0.9620     0.4150 c3         1 4XG       0.150600
     17 CAA          5.4270     1.2340    -0.1270 c3         1 4XG       0.150600
     18 H1          -0.3700     1.0250    -1.9440 h1         1 4XG       0.032700
     19 H2           0.7460     1.8870    -0.8900 h1         1 4XG       0.032700
     20 H3          -0.9610     2.4380     0.6960 hc         1 4XG       0.056200
     21 H4          -1.5810     2.8560    -0.8860 hc         1 4XG       0.056200
     22 H5          -3.8590     2.7550     0.2250 ha         1 4XG       0.111000
     23 H6          -5.8120     1.2810     0.6050 ha         1 4XG       0.110000
     24 H7          -5.5520    -1.1680     0.5290 ha         1 4XG       0.110000
     25 H8          -4.1500    -2.9880     0.0450 hn         1 4XG       0.439000
     26 H9          -2.5910    -2.8410    -0.4860 hn         1 4XG       0.439000
     27 H10         -0.8280    -1.6900     0.4710 h1         1 4XG       0.034200
     28 H11         -0.9640    -1.3780    -1.2540 h1         1 4XG       0.034200
     29 H13          1.3600    -1.5980    -0.0520 h1         1 4XG       0.027200
     30 H14          1.5090    -0.6890    -1.5440 h1         1 4XG       0.027200
     31 H15          2.6430     1.1630    -0.2300 hc         1 4XG       0.055700
     32 H16          2.4660     0.1990     1.2260 hc         1 4XG       0.055700
     33 H17          3.7710    -1.6380     0.1890 h1         1 4XG       0.026700
     34 H18          4.0000    -0.6860    -1.2700 h1         1 4XG       0.026700
     35 H20          6.4860    -1.2180    -0.6070 h1         1 4XG       0.029700
     36 H21          7.0240    -0.5340     0.9340 h1         1 4XG       0.029700
     37 H22          5.8990    -1.8910     0.9220 h1         1 4XG       0.029700
     38 H23          4.6220     1.9620    -0.0300 h1         1 4XG       0.029700
     39 H24          6.2950     1.6370     0.3970 h1         1 4XG       0.029700
     40 H25          5.6860     1.1610    -1.1960 h1         1 4XG       0.029700
@<TRIPOS>BOND
     1     1     2 1   
     2     1    11 1   
     3     1    18 1   
     4     1    19 1   
     5     2     3 1   
     6     2    20 1   
     7     2    21 1   
     8     3     4 ar  
     9     3     9 ar  
    10     4     5 ar  
    11     4    22 1   
    12     5     6 ar  
    13     5    23 1   
    14     6     7 ar  
    15     6    24 1   
    16     7     8 1   
    17     7     9 ar  
    18     8    25 1   
    19     8    26 1   
    20     9    10 1   
    21    10    11 1   
    22    10    27 1   
    23    10    28 1   
    24    11    12 1   
    25    12    13 1   
    26    12    29 1   
    27    12    30 1   
    28    13    14 1   
    29    13    31 1   
    30    13    32 1   
    31    14    15 1   
    32    14    33 1   
    33    14    34 1   
    34    15    16 1   
    35    15    17 1   
    36    16    35 1   
    37    16    36 1   
    38    16    37 1   
    39    17    38 1   
    40    17    39 1   
    41    17    40 1   
@<TRIPOS>SUBSTRUCTURE
     1 4XG         1 TEMP              0 ****  ****    0 ROOT
