@<TRIPOS>MOLECULE
4XG
   40    41     1     0     0
SMALL
No Charge or Current Charge


@<TRIPOS>ATOM
      1 CAK         -0.1150     1.3100    -0.7360 c6         1 4XG       0.169800
      2 CAH         -1.3550     2.0310    -0.1640 c6         1 4XG      -0.032100
      3 CAN         -2.5710     1.1160    -0.0150 ca         1 4XG      -0.027300
      4 CAF         -3.8420     1.6850     0.1830 ca         1 4XG      -0.151000
      5 CAD         -4.9700     0.8660     0.3310 ca         1 4XG      -0.071000
      6 CAE         -4.8290    -0.5290     0.2790 ca         1 4XG      -0.180000
      7 CAM         -3.5670    -1.1110     0.0850 ca         1 4XG       0.283000
      8 NAC         -3.4880    -2.4810     0.0290 nv         1 4XG      -1.064000
      9 CAO         -2.4230    -0.2900    -0.0540 ca         1 4XG      -0.130300
     10 CAL         -1.0330    -0.9060    -0.2810 c6         1 4XG       0.221100
     11 NAQ          0.1130     0.0150    -0.0440 n3         1 4XG      -0.715600
     12 CAJ          1.4080    -0.6320    -0.3740 c3         1 4XG       0.171800
     13 CAG          2.6640     0.1440     0.0830 c3         1 4XG      -0.078400
     14 CAI          3.9620    -0.6640    -0.1370 c3         1 4XG       0.165800
     15 NAP          5.1930    -0.0390     0.4120 n3         1 4XG      -0.712600
     16 CAB          6.3470    -0.9650     0.3800 c3         1 4XG       0.150600
     17 CAA          5.5250     1.2720    -0.1980 c3         1 4XG       0.150600
     18 H1          -0.2590     1.1430    -1.8140 h1         1 4XG       0.032700
     19 H2           0.7460     1.9840    -0.6260 h1         1 4XG       0.032700
     20 H3          -1.1030     2.4440     0.8220 hc         1 4XG       0.056200
     21 H4          -1.6020     2.8890    -0.8030 hc         1 4XG       0.056200
     22 H5          -3.9560     2.7670     0.2230 ha         1 4XG       0.111000
     23 H6          -5.9520     1.3100     0.4820 ha         1 4XG       0.110000
     24 H7          -5.7080    -1.1580     0.3890 ha         1 4XG       0.110000
     25 H8          -4.3400    -3.0400     0.0230 hn         1 4XG       0.439000
     26 H9          -2.6180    -2.9390    -0.2280 hn         1 4XG       0.439000
     27 H10         -0.9240    -1.7830     0.3750 h1         1 4XG       0.034200
     28 H11         -1.0000    -1.2790    -1.3150 h1         1 4XG       0.034200
     29 H13          1.4420    -1.6200     0.1070 h1         1 4XG       0.027200
     30 H14          1.4760    -0.8040    -1.4570 h1         1 4XG       0.027200
     31 H15          2.7290     1.0870    -0.4680 hc         1 4XG       0.055700
     32 H16          2.5680     0.3870     1.1480 hc         1 4XG       0.055700
     33 H17          3.8220    -1.6460     0.3370 h1         1 4XG       0.026700
     34 H18          4.0840    -0.8460    -1.2130 h1         1 4XG       0.026700
     35 H20          6.6190    -1.2190    -0.6530 h1         1 4XG       0.029700
     36 H21          7.2220    -0.5130     0.8660 h1         1 4XG       0.029700
     37 H22          6.1120    -1.8970     0.9120 h1         1 4XG       0.029700
     38 H23          4.7280     2.0060    -0.0220 h1         1 4XG       0.029700
     39 H24          6.4470     1.6800     0.2390 h1         1 4XG       0.029700
     40 H25          5.6740     1.1740    -1.2820 h1         1 4XG       0.029700
@<TRIPOS>BOND
     1     1     2 1   
     2     1    11 1   
     3     1    18 1   
     4     1    19 1   
     5     2     3 1   
     6     2    20 1   
     7     2    21 1   
     8     3     4 ar  
     9     3     9 ar  
    10     4     5 ar  
    11     4    22 1   
    12     5     6 ar  
    13     5    23 1   
    14     6     7 ar  
    15     6    24 1   
    16     7     8 1   
    17     7     9 ar  
    18     8    25 1   
    19     8    26 1   
    20     9    10 1   
    21    10    11 1   
    22    10    27 1   
    23    10    28 1   
    24    11    12 1   
    25    12    13 1   
    26    12    29 1   
    27    12    30 1   
    28    13    14 1   
    29    13    31 1   
    30    13    32 1   
    31    14    15 1   
    32    14    33 1   
    33    14    34 1   
    34    15    16 1   
    35    15    17 1   
    36    16    35 1   
    37    16    36 1   
    38    16    37 1   
    39    17    38 1   
    40    17    39 1   
    41    17    40 1   
@<TRIPOS>SUBSTRUCTURE
     1 4XG         1 TEMP              0 ****  ****    0 ROOT
