@<TRIPOS>MOLECULE
4XH
   17    18     1     0     0
SMALL
bcc


@<TRIPOS>ATOM
      1 C1          -0.7180    -2.6300     0.0320 ca         1 4XH      -0.126000
      2 C2          -1.9880     2.1940     0.0100 ca         1 4XH      -0.246300
      3 C3          -0.7630     1.5910     0.0050 ca         1 4XH      -0.075000
      4 C4          -1.9020    -1.9500     0.0350 ca         1 4XH      -0.150300
      5 C5           0.5100    -1.9380     0.0190 ca         1 4XH      -0.094000
      6 C6          -3.1440     1.3890     0.0220 ca         1 4XH       0.422200
      7 C7          -0.6840     0.1810     0.0130 ca         1 4XH      -0.127300
      8 C8          -1.9120    -0.5380     0.0260 ca         1 4XH       0.398600
      9 C9           0.5190    -0.5710     0.0100 ca         1 4XH      -0.001900
     10 N10         -3.1140     0.0850     0.0300 nb         1 4XH      -0.662000
     11 BR           2.1890     0.3140    -0.0080 br         1 4XH      -0.096100
     12 H1          -0.7060    -3.7110     0.0380 ha         1 4XH       0.140000
     13 H4          -2.8490    -2.4730     0.0460 ha         1 4XH       0.154000
     14 H5           1.4330    -2.5010     0.0180 ha         1 4XH       0.149000
     15 H2          -2.0800     3.2710     0.0040 ha         1 4XH       0.145000
     16 H3           0.1310     2.1990    -0.0050 ha         1 4XH       0.151000
     17 H6          -4.1230     1.8560     0.0260 h4         1 4XH       0.021100
@<TRIPOS>BOND
     1     1     4 ar  
     2     1     5 ar  
     3     1    12 1   
     4     2     3 ar  
     5     2     6 ar  
     6     2    15 1   
     7     3     7 ar  
     8     3    16 1   
     9     4     8 ar  
    10     4    13 1   
    11     5     9 ar  
    12     5    14 1   
    13     6    10 ar  
    14     6    17 1   
    15     7     8 ar  
    16     7     9 ar  
    17     8    10 ar  
    18     9    11 1   
@<TRIPOS>SUBSTRUCTURE
     1 4XH         1 TEMP              0 ****  ****    0 ROOT
