@<TRIPOS>MOLECULE
4XH
   17    18     1     0     0
SMALL
No Charge or Current Charge


@<TRIPOS>ATOM
      1 C1          -0.6950    -2.6580     0.0320 ca         1 4XH      -0.108000
      2 C2          -1.9990     2.2120     0.0090 ca         1 4XH      -0.163000
      3 C3          -0.7490     1.5750     0.0050 ca         1 4XH      -0.057000
      4 C4          -1.9120    -1.9570     0.0360 ca         1 4XH      -0.067000
      5 C5           0.5170    -1.9530     0.0190 ca         1 4XH      -0.076000
      6 C6          -3.1640     1.4340     0.0220 ca         1 4XH       0.356900
      7 C7          -0.7100     0.1630     0.0140 ca         1 4XH      -0.062000
      8 C8          -1.9420    -0.5500     0.0270 ca         1 4XH       0.268000
      9 C9           0.5170    -0.5480     0.0100 ca         1 4XH      -0.001900
     10 N10         -3.1410     0.0820     0.0310 nb         1 4XH      -0.662000
     11 Br           2.2200     0.3420    -0.0070 br         1 4XH      -0.096100
     12 H1          -0.6930    -3.7460     0.0390 ha         1 4XH       0.122000
     13 H4          -2.8480    -2.5100     0.0450 ha         1 4XH       0.136000
     14 H5           1.4590    -2.4960     0.0160 ha         1 4XH       0.131000
     15 H2          -2.0700     3.2960     0.0030 ha         1 4XH       0.127000
     16 H3           0.1550     2.1780    -0.0050 ha         1 4XH       0.133000
     17 H6          -4.1470     1.9050     0.0260 h4         1 4XH       0.021100
@<TRIPOS>BOND
     1     1     4 ar  
     2     1     5 ar  
     3     1    12 1   
     4     2     3 ar  
     5     2     6 ar  
     6     2    15 1   
     7     3     7 ar  
     8     3    16 1   
     9     4     8 ar  
    10     4    13 1   
    11     5     9 ar  
    12     5    14 1   
    13     6    10 ar  
    14     6    17 1   
    15     7     8 ar  
    16     7     9 ar  
    17     8    10 ar  
    18     9    11 1   
@<TRIPOS>SUBSTRUCTURE
     1 4XH         1 TEMP              0 ****  ****    0 ROOT
