@<TRIPOS>MOLECULE
4XJ
   40    41     1     0     0
SMALL
No Charge or Current Charge


@<TRIPOS>ATOM
      1 C3          -4.3340     2.0980    -0.9260 c3         1 4XJ       0.140900
      2 CAI         -0.1160     1.7590     0.7090 c6         1 4XJ       0.173800
      3 CAG          1.0660     2.1930    -0.1830 c6         1 4XJ      -0.032100
      4 CAM          2.1840     1.1550    -0.2420 ca         1 4XJ      -0.026300
      5 CAE          3.4580     1.5360    -0.7040 ca         1 4XJ      -0.151000
      6 CAC          4.4960     0.5960    -0.7700 ca         1 4XJ      -0.072000
      7 CAD          4.2620    -0.7290    -0.3730 ca         1 4XJ      -0.180000
      8 CAL          2.9950    -1.1230     0.0860 ca         1 4XJ       0.282000
      9 NAB          2.8260    -2.4300     0.4730 nv         1 4XJ      -1.065000
     10 CAN          1.9400    -0.1820     0.1460 ca         1 4XJ      -0.128300
     11 CAJ          0.5480    -0.5930     0.6550 c6         1 4XJ       0.221100
     12 NAO         -0.5560     0.3760     0.3830 n3         1 4XJ      -0.691600
     13 CAH         -1.8630    -0.0210     1.0310 c3         1 4XJ       0.203500
     14 C1          -3.0590     0.9650     0.7920 c3         1 4XJ       0.164600
     15 O2          -3.2590     1.1980    -0.6180 os         1 4XJ      -0.411000
     16 CAF         -2.3260    -1.4920     0.7500 c3         1 4XJ       0.164600
     17 OAK         -2.4290    -1.7360    -0.6680 os         1 4XJ      -0.411000
     18 CAA         -2.8410    -3.0670    -1.0140 c3         1 4XJ       0.140900
     19 H1          -5.2880     1.7110    -0.5450 h1         1 4XJ       0.025367
     20 H2          -4.1550     3.0850    -0.4800 h1         1 4XJ       0.025367
     21 H3          -4.4260     2.2250    -2.0120 h1         1 4XJ       0.025367
     22 H4           0.1850     1.8210     1.7650 h1         1 4XJ       0.029700
     23 H5          -0.9240     2.4860     0.5570 h1         1 4XJ       0.029700
     24 H6           0.6970     2.3740    -1.2020 hc         1 4XJ       0.058200
     25 H7           1.4580     3.1530     0.1790 hc         1 4XJ       0.058200
     26 H8           3.6420     2.5620    -1.0110 ha         1 4XJ       0.111000
     27 H9           5.4800     0.8940    -1.1260 ha         1 4XJ       0.109000
     28 H10          5.0730    -1.4510    -0.4220 ha         1 4XJ       0.109000
     29 H11          3.6260    -3.0580     0.5100 hn         1 4XJ       0.438000
     30 H12          1.9600    -2.7340     0.9090 hn         1 4XJ       0.438000
     31 H13          0.2990    -1.5610     0.1970 h1         1 4XJ       0.034700
     32 H14          0.6290    -0.7640     1.7390 h1         1 4XJ       0.034700
     33 H16         -1.6950     0.0110     2.1160 h1         1 4XJ       0.016700
     34 H17         -3.9680     0.5450     1.2430 h1         1 4XJ       0.014450
     35 H18         -2.8580     1.9130     1.3070 h1         1 4XJ       0.014450
     36 H19         -1.6100    -2.1900     1.2030 h1         1 4XJ       0.014450
     37 H20         -3.2940    -1.6650     1.2390 h1         1 4XJ       0.014450
     38 H21         -2.1270    -3.8080    -0.6330 h1         1 4XJ       0.025367
     39 H22         -3.8310    -3.2900    -0.5960 h1         1 4XJ       0.025367
     40 H23         -2.8980    -3.1760    -2.1050 h1         1 4XJ       0.025367
@<TRIPOS>BOND
     1     1    15 1   
     2     1    19 1   
     3     1    20 1   
     4     1    21 1   
     5     2     3 1   
     6     2    12 1   
     7     2    22 1   
     8     2    23 1   
     9     3     4 1   
    10     3    24 1   
    11     3    25 1   
    12     4     5 ar  
    13     4    10 ar  
    14     5     6 ar  
    15     5    26 1   
    16     6     7 ar  
    17     6    27 1   
    18     7     8 ar  
    19     7    28 1   
    20     8     9 1   
    21     8    10 ar  
    22     9    29 1   
    23     9    30 1   
    24    10    11 1   
    25    11    12 1   
    26    11    31 1   
    27    11    32 1   
    28    12    13 1   
    29    13    14 1   
    30    13    16 1   
    31    13    33 1   
    32    14    15 1   
    33    14    34 1   
    34    14    35 1   
    35    16    17 1   
    36    16    36 1   
    37    16    37 1   
    38    17    18 1   
    39    18    38 1   
    40    18    39 1   
    41    18    40 1   
@<TRIPOS>SUBSTRUCTURE
     1 4XJ         1 TEMP              0 ****  ****    0 ROOT
