@<TRIPOS>MOLECULE
4XJ
   40    41     1     0     0
SMALL
bcc


@<TRIPOS>ATOM
      1 C3          -4.1000     2.1320    -0.8740 c3         1 4XJ       0.117700
      2 CAI         -0.1500     1.6900     0.7570 c6         1 4XJ       0.173800
      3 CAG          0.9340     2.1360    -0.2060 c6         1 4XJ      -0.032100
      4 CAM          2.0490     1.1350    -0.2930 ca         1 4XJ      -0.026300
      5 CAE          3.2960     1.4990    -0.7990 ca         1 4XJ      -0.169000
      6 CAC          4.3140     0.5620    -0.8660 ca         1 4XJ      -0.090000
      7 CAD          4.1060    -0.7320    -0.4140 ca         1 4XJ      -0.198000
      8 CAL          2.8650    -1.1100     0.1000 ca         1 4XJ       0.143600
      9 NAB          2.6430    -2.4160     0.5070 nv         1 4XJ      -0.816200
     10 CAN          1.8210    -0.1660     0.1410 ca         1 4XJ      -0.128300
     11 CAJ          0.4750    -0.6040     0.6560 c6         1 4XJ       0.221100
     12 NAO         -0.5870     0.3500     0.4110 n3         1 4XJ      -0.691600
     13 CAH         -1.8370    -0.0490     1.0470 c3         1 4XJ       0.203500
     14 C1          -2.9750     0.9290     0.7680 c3         1 4XJ       0.141400
     15 O2          -3.1030     1.1840    -0.6020 os         1 4XJ      -0.364600
     16 CAF         -2.2380    -1.4780     0.6950 c3         1 4XJ       0.141400
     17 OAK         -2.2790    -1.6690    -0.6920 os         1 4XJ      -0.364600
     18 CAA         -2.6520    -2.9780    -1.0330 c3         1 4XJ       0.117700
     19 H1          -5.0890     1.8070    -0.5280 h1         1 4XJ       0.025367
     20 H2          -3.8870     3.1010    -0.4040 h1         1 4XJ       0.025367
     21 H3          -4.1450     2.2770    -1.9530 h1         1 4XJ       0.025367
     22 H4           0.2170     1.7490     1.7970 h1         1 4XJ       0.029700
     23 H5          -0.9780     2.3900     0.6800 h1         1 4XJ       0.029700
     24 H6           0.4900     2.2830    -1.1960 hc         1 4XJ       0.058200
     25 H7           1.3260     3.1070     0.1040 hc         1 4XJ       0.058200
     26 H8           3.4660     2.5160    -1.1310 ha         1 4XJ       0.129000
     27 H9           5.2830     0.8410    -1.2590 ha         1 4XJ       0.127000
     28 H10          4.9100    -1.4580    -0.4540 ha         1 4XJ       0.127000
     29 H11          3.4840    -2.9470     0.6720 hn         1 4XJ       0.382800
     30 H12          2.0000    -2.5350     1.2740 hn         1 4XJ       0.382800
     31 H13          0.2280    -1.5490     0.1660 h1         1 4XJ       0.034700
     32 H14          0.5670    -0.8350     1.7380 h1         1 4XJ       0.034700
     33 H16         -1.7340    -0.0570     2.1490 h1         1 4XJ       0.016700
     34 H17         -3.8990     0.4950     1.1810 h1         1 4XJ       0.014450
     35 H18         -2.8210     1.8660     1.3230 h1         1 4XJ       0.014450
     36 H19         -1.5480    -2.1950     1.1650 h1         1 4XJ       0.014450
     37 H20         -3.2200    -1.6730     1.1510 h1         1 4XJ       0.014450
     38 H21         -1.9640    -3.7260    -0.6190 h1         1 4XJ       0.025367
     39 H22         -3.6620    -3.2240    -0.6820 h1         1 4XJ       0.025367
     40 H23         -2.6370    -3.0630    -2.1190 h1         1 4XJ       0.025367
@<TRIPOS>BOND
     1     1    15 1   
     2     1    19 1   
     3     1    20 1   
     4     1    21 1   
     5     2     3 1   
     6     2    12 1   
     7     2    22 1   
     8     2    23 1   
     9     3     4 1   
    10     3    24 1   
    11     3    25 1   
    12     4     5 ar  
    13     4    10 ar  
    14     5     6 ar  
    15     5    26 1   
    16     6     7 ar  
    17     6    27 1   
    18     7     8 ar  
    19     7    28 1   
    20     8     9 1   
    21     8    10 ar  
    22     9    29 1   
    23     9    30 1   
    24    10    11 1   
    25    11    12 1   
    26    11    31 1   
    27    11    32 1   
    28    12    13 1   
    29    13    14 1   
    30    13    16 1   
    31    13    33 1   
    32    14    15 1   
    33    14    34 1   
    34    14    35 1   
    35    16    17 1   
    36    16    36 1   
    37    16    37 1   
    38    17    18 1   
    39    18    38 1   
    40    18    39 1   
    41    18    40 1   
@<TRIPOS>SUBSTRUCTURE
     1 4XJ         1 TEMP              0 ****  ****    0 ROOT
