@<TRIPOS>MOLECULE
4XK
   47    49     1     0     0
SMALL
bcc


@<TRIPOS>ATOM
      1 CAM          2.4710     1.7400    -0.8240 c6         1 4XK       0.165800
      2 CAI          3.8330     1.6870    -0.1550 c6         1 4XK      -0.019100
      3 CAS          4.3110     0.2760     0.0460 ca         1 4XK      -0.124300
      4 CAQ          5.6500     0.0230     0.4020 ca         1 4XK       0.149600
      5 NAA          6.5240     1.0690     0.6320 nv         1 4XK      -0.819200
      6 CAC          6.0740    -1.2970     0.5760 ca         1 4XK      -0.197000
      7 CAB          5.1820    -2.3460     0.4170 ca         1 4XK      -0.089000
      8 CAD          3.8600    -2.0990     0.0880 ca         1 4XK      -0.170000
      9 CAR          3.4260    -0.7870    -0.0950 ca         1 4XK      -0.036300
     10 CAN          1.9830    -0.5450    -0.4560 c6         1 4XK       0.203100
     11 NAU          1.5560     0.8120    -0.1870 n3         1 4XK      -0.703600
     12 CAL          0.1890     1.0470    -0.6160 c3         1 4XK       0.168800
     13 CAE         -0.8460     0.2630     0.1800 c3         1 4XK      -0.083400
     14 CAF         -2.2500     0.6640    -0.2310 c3         1 4XK       0.140400
     15 OAP         -3.1790    -0.0990     0.5030 os         1 4XK      -0.409600
     16 CAT         -4.5280     0.2430     0.2730 c6         1 4XK       0.154100
     17 CAJ         -5.3730    -0.3970     1.3630 c6         1 4XK      -0.129900
     18 CAG         -6.8490    -0.1200     1.1100 c6         1 4XK       0.132900
     19 OAO         -7.2610    -0.5670    -0.1620 os         1 4XK      -0.401600
     20 CAH         -6.5350     0.0560    -1.1990 c6         1 4XK       0.132900
     21 CAK         -5.0400    -0.2110    -1.0920 c6         1 4XK      -0.129900
     22 H1           2.0700     2.7510    -0.7420 h1         1 4XK       0.030700
     23 H2           2.5770     1.5250    -1.9020 h1         1 4XK       0.030700
     24 H3           4.5370     2.2530    -0.7740 hc         1 4XK       0.048200
     25 H4           3.7910     2.2080     0.8080 hc         1 4XK       0.048200
     26 H5           6.3480     1.9160     0.1160 hn         1 4XK       0.386300
     27 H6           7.5010     0.8210     0.5900 hn         1 4XK       0.386300
     28 H7           7.1060    -1.4960     0.8390 ha         1 4XK       0.128000
     29 H8           5.5250    -3.3630     0.5600 ha         1 4XK       0.128000
     30 H9           3.1610    -2.9200    -0.0230 ha         1 4XK       0.130000
     31 H10          1.8330    -0.8040    -1.5220 h1         1 4XK       0.042200
     32 H11          1.3670    -1.2440     0.1130 h1         1 4XK       0.042200
     33 H13         -0.0130     2.1150    -0.4900 h1         1 4XK       0.028200
     34 H14          0.0630     0.8300    -1.6920 h1         1 4XK       0.028200
     35 H15         -0.7300    -0.8120     0.0200 hc         1 4XK       0.061700
     36 H16         -0.7010     0.4520     1.2480 hc         1 4XK       0.061700
     37 H17         -2.4050     1.7370    -0.0480 h1         1 4XK       0.018200
     38 H18         -2.3700     0.5080    -1.3120 h1         1 4XK       0.018200
     39 H19         -4.6460     1.3370     0.3390 h1         1 4XK       0.028700
     40 H20         -5.1970    -1.4770     1.3820 hc         1 4XK       0.060200
     41 H21         -5.0980    -0.0010     2.3440 hc         1 4XK       0.060200
     42 H22         -7.4670    -0.6360     1.8470 h1         1 4XK       0.044200
     43 H23         -7.0430     0.9580     1.2180 h1         1 4XK       0.044200
     44 H24         -6.9270    -0.3310    -2.1410 h1         1 4XK       0.044200
     45 H25         -6.7140     1.1420    -1.1920 h1         1 4XK       0.044200
     46 H26         -4.5350     0.3130    -1.9080 hc         1 4XK       0.060200
     47 H27         -4.8410    -1.2800    -1.2190 hc         1 4XK       0.060200
@<TRIPOS>BOND
     1     1     2 1   
     2     1    11 1   
     3     1    22 1   
     4     1    23 1   
     5     2     3 1   
     6     2    24 1   
     7     2    25 1   
     8     3     4 ar  
     9     3     9 ar  
    10     4     5 1   
    11     4     6 ar  
    12     5    26 1   
    13     5    27 1   
    14     6     7 ar  
    15     6    28 1   
    16     7     8 ar  
    17     7    29 1   
    18     8     9 ar  
    19     8    30 1   
    20     9    10 1   
    21    10    11 1   
    22    10    31 1   
    23    10    32 1   
    24    11    12 1   
    25    12    13 1   
    26    12    33 1   
    27    12    34 1   
    28    13    14 1   
    29    13    35 1   
    30    13    36 1   
    31    14    15 1   
    32    14    37 1   
    33    14    38 1   
    34    15    16 1   
    35    16    17 1   
    36    16    21 1   
    37    16    39 1   
    38    17    18 1   
    39    17    40 1   
    40    17    41 1   
    41    18    19 1   
    42    18    42 1   
    43    18    43 1   
    44    19    20 1   
    45    20    21 1   
    46    20    44 1   
    47    20    45 1   
    48    21    46 1   
    49    21    47 1   
@<TRIPOS>SUBSTRUCTURE
     1 4XK         1 TEMP              0 ****  ****    0 ROOT
