@<TRIPOS>MOLECULE
4XK
   47    49     1     0     0
SMALL
No Charge or Current Charge


@<TRIPOS>ATOM
      1 CAM          2.5560     1.7760    -0.8910 c6         1 4XK       0.165800
      2 CAI          3.9500     1.6960    -0.2250 c6         1 4XK      -0.019100
      3 CAS          4.4290     0.2570     0.0360 ca         1 4XK      -0.124300
      4 CAQ          5.7760    -0.0210     0.3690 ca         1 4XK       0.288000
      5 NAA          6.7140     0.9770     0.4630 nv         1 4XK      -1.068000
      6 CAC          6.1800    -1.3410     0.6160 ca         1 4XK      -0.179000
      7 CAB          5.2550    -2.3940     0.5420 ca         1 4XK      -0.071000
      8 CAD          3.9160    -2.1240     0.2240 ca         1 4XK      -0.152000
      9 CAR          3.4940    -0.8040    -0.0250 ca         1 4XK      -0.036300
     10 CAN          2.0200    -0.5450    -0.3770 c6         1 4XK       0.203100
     11 NAU          1.5820     0.8730    -0.2310 n3         1 4XK      -0.703600
     12 CAL          0.1930     1.1140    -0.6930 c3         1 4XK       0.168800
     13 CAE         -0.8940     0.3550     0.0980 c3         1 4XK      -0.083400
     14 CAF         -2.3150     0.7630    -0.3230 c3         1 4XK       0.163600
     15 OAP         -3.2410    -0.0030     0.4680 os         1 4XK      -0.456000
     16 CAT         -4.6460     0.2830     0.3110 c6         1 4XK       0.177300
     17 CAJ         -5.4440    -0.5070     1.3750 c6         1 4XK      -0.129900
     18 CAG         -6.9630    -0.3150     1.1690 c6         1 4XK       0.156100
     19 OAO         -7.3250    -0.6990    -0.1740 os         1 4XK      -0.448000
     20 CAH         -6.6880     0.0930    -1.1980 c6         1 4XK       0.156100
     21 CAK         -5.1530    -0.0690    -1.1140 c6         1 4XK      -0.129900
     22 H1           2.2090     2.8190    -0.8470 h1         1 4XK       0.030700
     23 H2           2.6500     1.5120    -1.9550 h1         1 4XK       0.030700
     24 H3           4.6670     2.2320    -0.8600 hc         1 4XK       0.048200
     25 H4           3.9160     2.2360     0.7310 hc         1 4XK       0.048200
     26 H5           6.4750     1.9290     0.1990 hn         1 4XK       0.441500
     27 H6           7.6960     0.7470     0.5970 hn         1 4XK       0.441500
     28 H7           7.2150    -1.5570     0.8690 ha         1 4XK       0.110000
     29 H8           5.5750    -3.4160     0.7350 ha         1 4XK       0.110000
     30 H9           3.2030    -2.9430     0.1700 ha         1 4XK       0.112000
     31 H10          1.8620    -0.8800    -1.4130 h1         1 4XK       0.042200
     32 H11          1.4060    -1.1960     0.2610 h1         1 4XK       0.042200
     33 H13         -0.0280     2.1870    -0.6080 h1         1 4XK       0.028200
     34 H14          0.1020     0.8530    -1.7560 h1         1 4XK       0.028200
     35 H15         -0.7810    -0.7240    -0.0540 hc         1 4XK       0.061700
     36 H16         -0.7650     0.5540     1.1690 hc         1 4XK       0.061700
     37 H17         -2.4560     1.8380    -0.1510 h1         1 4XK       0.018200
     38 H18         -2.4470     0.5590    -1.3930 h1         1 4XK       0.018200
     39 H19         -4.8030     1.3580     0.4890 h1         1 4XK       0.028700
     40 H20         -5.1980    -1.5750     1.3120 hc         1 4XK       0.060200
     41 H21         -5.1610    -0.1730     2.3810 hc         1 4XK       0.060200
     42 H22         -7.5210    -0.9380     1.8830 h1         1 4XK       0.044200
     43 H23         -7.2450     0.7350     1.3370 h1         1 4XK       0.044200
     44 H24         -7.0480    -0.2390    -2.1830 h1         1 4XK       0.044200
     45 H25         -6.9700     1.1490    -1.0700 h1         1 4XK       0.044200
     46 H26         -4.6850     0.5820    -1.8630 hc         1 4XK       0.060200
     47 H27         -4.8770    -1.1010    -1.3670 hc         1 4XK       0.060200
@<TRIPOS>BOND
     1     1     2 1   
     2     1    11 1   
     3     1    22 1   
     4     1    23 1   
     5     2     3 1   
     6     2    24 1   
     7     2    25 1   
     8     3     4 ar  
     9     3     9 ar  
    10     4     5 1   
    11     4     6 ar  
    12     5    26 1   
    13     5    27 1   
    14     6     7 ar  
    15     6    28 1   
    16     7     8 ar  
    17     7    29 1   
    18     8     9 ar  
    19     8    30 1   
    20     9    10 1   
    21    10    11 1   
    22    10    31 1   
    23    10    32 1   
    24    11    12 1   
    25    12    13 1   
    26    12    33 1   
    27    12    34 1   
    28    13    14 1   
    29    13    35 1   
    30    13    36 1   
    31    14    15 1   
    32    14    37 1   
    33    14    38 1   
    34    15    16 1   
    35    16    17 1   
    36    16    21 1   
    37    16    39 1   
    38    17    18 1   
    39    17    40 1   
    40    17    41 1   
    41    18    19 1   
    42    18    42 1   
    43    18    43 1   
    44    19    20 1   
    45    20    21 1   
    46    20    44 1   
    47    20    45 1   
    48    21    46 1   
    49    21    47 1   
@<TRIPOS>SUBSTRUCTURE
     1 4XK         1 TEMP              0 ****  ****    0 ROOT
