@<TRIPOS>MOLECULE
4XL
   45    47     1     0     0
SMALL
abcg2


@<TRIPOS>ATOM
      1 CAM         -1.2070     1.1190    -0.9670 c6         1 4XL       0.169800
      2 CAH         -2.2810     1.9540    -0.2980 c6         1 4XL      -0.032100
      3 CAQ         -3.5180     1.1450    -0.0170 ca         1 4XL      -0.027300
      4 CAD         -4.7350     1.7870     0.2110 ca         1 4XL      -0.152000
      5 CAB         -5.8750     1.0410     0.4560 ca         1 4XL      -0.070000
      6 CAC         -5.8160    -0.3440     0.4670 ca         1 4XL      -0.181000
      7 CAP         -4.6090    -1.0030     0.2290 ca         1 4XL       0.287000
      8 NAA         -4.5760    -2.3860     0.1620 nv         1 4XL      -1.069000
      9 CAR         -3.4440    -0.2450    -0.0010 ca         1 4XL      -0.132300
     10 CAN         -2.1440    -0.9580    -0.2660 c6         1 4XL       0.224100
     11 NAT         -0.9920    -0.0860    -0.1920 n3         1 4XL      -0.721600
     12 CAJ          0.2220    -0.7970    -0.5570 c3         1 4XL       0.171800
     13 CAE          1.4800    -0.1530     0.0080 c3         1 4XL      -0.078400
     14 CAI          2.7270    -0.9270    -0.3990 c3         1 4XL       0.169800
     15 NAS          3.9430    -0.4010     0.1910 n3         1 4XL      -0.715600
     16 CAK          5.0430    -1.3420     0.0820 c6         1 4XL       0.127300
     17 CAF          6.2810    -0.7830     0.7590 c6         1 4XL       0.153100
     18 OAO          6.6540     0.4630     0.2120 os         1 4XL      -0.450000
     19 CAG          5.5930     1.3870     0.3040 c6         1 4XL       0.153100
     20 CAL          4.3400     0.8740    -0.3780 c6         1 4XL       0.127300
     21 H1          -1.4950     0.8890    -2.0070 h1         1 4XL       0.034200
     22 H2          -0.2810     1.6930    -1.0170 h1         1 4XL       0.034200
     23 H3          -1.8870     2.3620     0.6370 hc         1 4XL       0.055700
     24 H4          -2.5350     2.8130    -0.9250 hc         1 4XL       0.055700
     25 H5          -4.7830     2.8690     0.1890 ha         1 4XL       0.112000
     26 H6          -6.8210     1.5360     0.6390 ha         1 4XL       0.110000
     27 H7          -6.7110    -0.9250     0.6590 ha         1 4XL       0.110000
     28 H8          -5.3750    -2.8430     0.5720 hn         1 4XL       0.441000
     29 H9          -3.7230    -2.8290     0.4660 hn         1 4XL       0.441000
     30 H10         -1.9980    -1.7530     0.4740 h1         1 4XL       0.034200
     31 H11         -2.2120    -1.4680    -1.2460 h1         1 4XL       0.034200
     32 H13          0.1460    -1.8120    -0.1560 h1         1 4XL       0.028200
     33 H14          0.3100    -0.9100    -1.6510 h1         1 4XL       0.028200
     34 H15          1.5570     0.8850    -0.3270 hc         1 4XL       0.055200
     35 H16          1.4110    -0.1280     1.0980 hc         1 4XL       0.055200
     36 H17          2.6160    -1.9630    -0.0650 h1         1 4XL       0.028700
     37 H18          2.7970    -0.9650    -1.5000 h1         1 4XL       0.028700
     38 H20          4.7690    -2.2800     0.5720 h1         1 4XL       0.039950
     39 H21          5.2780    -1.5820    -0.9700 h1         1 4XL       0.039950
     40 H22          6.0920    -0.6880     1.8370 h1         1 4XL       0.050700
     41 H23          7.1220    -1.4650     0.6250 h1         1 4XL       0.050700
     42 H24          5.3670     1.6090     1.3560 h1         1 4XL       0.050700
     43 H25          5.9230     2.3120    -0.1710 h1         1 4XL       0.050700
     44 H26          4.5170     0.7930    -1.4660 h1         1 4XL       0.039950
     45 H27          3.5480     1.6130    -0.2380 h1         1 4XL       0.039950
@<TRIPOS>BOND
     1     1     2 1   
     2     1    11 1   
     3     1    21 1   
     4     1    22 1   
     5     2     3 1   
     6     2    23 1   
     7     2    24 1   
     8     3     4 ar  
     9     3     9 ar  
    10     4     5 ar  
    11     4    25 1   
    12     5     6 ar  
    13     5    26 1   
    14     6     7 ar  
    15     6    27 1   
    16     7     8 1   
    17     7     9 ar  
    18     8    28 1   
    19     8    29 1   
    20     9    10 1   
    21    10    11 1   
    22    10    30 1   
    23    10    31 1   
    24    11    12 1   
    25    12    13 1   
    26    12    32 1   
    27    12    33 1   
    28    13    14 1   
    29    13    34 1   
    30    13    35 1   
    31    14    15 1   
    32    14    36 1   
    33    14    37 1   
    34    15    16 1   
    35    15    20 1   
    36    16    17 1   
    37    16    38 1   
    38    16    39 1   
    39    17    18 1   
    40    17    40 1   
    41    17    41 1   
    42    18    19 1   
    43    19    20 1   
    44    19    42 1   
    45    19    43 1   
    46    20    44 1   
    47    20    45 1   
@<TRIPOS>SUBSTRUCTURE
     1 4XL         1 TEMP              0 ****  ****    0 ROOT
