@<TRIPOS>MOLECULE
4XL
   45    47     1     0     0
SMALL
No Charge or Current Charge


@<TRIPOS>ATOM
      1 CAM         -1.2090     1.1990    -0.7890 c6         1 4XL       0.169800
      2 CAH         -2.3940     1.9900    -0.1930 c6         1 4XL      -0.032100
      3 CAQ         -3.6510     1.1420     0.0010 ca         1 4XL      -0.027300
      4 CAD         -4.8860     1.7790     0.2230 ca         1 4XL      -0.152000
      5 CAB         -6.0500     1.0220     0.4110 ca         1 4XL      -0.070000
      6 CAC         -5.9830    -0.3800     0.3770 ca         1 4XL      -0.181000
      7 CAP         -4.7570    -1.0290     0.1610 ca         1 4XL       0.287000
      8 NAA         -4.7510    -2.4020     0.1270 nv         1 4XL      -1.069000
      9 CAR         -3.5770    -0.2700    -0.0200 ca         1 4XL      -0.132300
     10 CAN         -2.2280    -0.9610    -0.2790 c6         1 4XL       0.224100
     11 NAT         -1.0290    -0.0990    -0.0850 n3         1 4XL      -0.721600
     12 CAJ          0.2210    -0.8170    -0.4420 c3         1 4XL       0.171800
     13 CAE          1.5270    -0.1010    -0.0310 c3         1 4XL      -0.078400
     14 CAI          2.7750    -0.9790    -0.2760 c3         1 4XL       0.169800
     15 NAS          4.0490    -0.4090     0.2300 n3         1 4XL      -0.715600
     16 CAK          5.1740    -1.3940     0.1630 c6         1 4XL       0.127300
     17 CAF          6.5030    -0.8000     0.7170 c6         1 4XL       0.153100
     18 OAO          6.8330     0.4250     0.0210 os         1 4XL      -0.450000
     19 CAG          5.7950     1.4270     0.1380 c6         1 4XL       0.153100
     20 CAL          4.4470     0.8820    -0.4240 c6         1 4XL       0.127300
     21 H1          -1.3910     1.0260    -1.8600 h1         1 4XL       0.034200
     22 H2          -0.3120     1.8280    -0.7110 h1         1 4XL       0.034200
     23 H3          -2.0930     2.4020     0.7800 hc         1 4XL       0.055700
     24 H4          -2.6130     2.8520    -0.8370 hc         1 4XL       0.055700
     25 H5          -4.9420     2.8650     0.2490 ha         1 4XL       0.112000
     26 H6          -7.0040     1.5190     0.5800 ha         1 4XL       0.110000
     27 H7          -6.8900    -0.9600     0.5170 ha         1 4XL       0.110000
     28 H8          -5.5920    -2.9170     0.3810 hn         1 4XL       0.441000
     29 H9          -3.8710    -2.9110     0.1180 hn         1 4XL       0.441000
     30 H10         -2.1460    -1.8350     0.3840 h1         1 4XL       0.034200
     31 H11         -2.2440    -1.3470    -1.3090 h1         1 4XL       0.034200
     32 H13          0.2170    -1.7990     0.0520 h1         1 4XL       0.028200
     33 H14          0.2490    -1.0050    -1.5240 h1         1 4XL       0.028200
     34 H15          1.6260     0.8310    -0.5950 hc         1 4XL       0.055200
     35 H16          1.4750     0.1580     1.0330 hc         1 4XL       0.055200
     36 H17          2.6000    -1.9460     0.2150 h1         1 4XL       0.028700
     37 H18          2.8570    -1.1780    -1.3530 h1         1 4XL       0.028700
     38 H20          4.9250    -2.2970     0.7410 h1         1 4XL       0.039950
     39 H21          5.3390    -1.7140    -0.8770 h1         1 4XL       0.039950
     40 H22          6.4030    -0.5930     1.7920 h1         1 4XL       0.050700
     41 H23          7.3210    -1.5230     0.5820 h1         1 4XL       0.050700
     42 H24          5.6760     1.7040     1.1950 h1         1 4XL       0.050700
     43 H25          6.0960     2.3250    -0.4190 h1         1 4XL       0.050700
     44 H26          4.5480     0.7440    -1.5100 h1         1 4XL       0.039950
     45 H27          3.6790     1.6520    -0.2660 h1         1 4XL       0.039950
@<TRIPOS>BOND
     1     1     2 1   
     2     1    11 1   
     3     1    21 1   
     4     1    22 1   
     5     2     3 1   
     6     2    23 1   
     7     2    24 1   
     8     3     4 ar  
     9     3     9 ar  
    10     4     5 ar  
    11     4    25 1   
    12     5     6 ar  
    13     5    26 1   
    14     6     7 ar  
    15     6    27 1   
    16     7     8 1   
    17     7     9 ar  
    18     8    28 1   
    19     8    29 1   
    20     9    10 1   
    21    10    11 1   
    22    10    30 1   
    23    10    31 1   
    24    11    12 1   
    25    12    13 1   
    26    12    32 1   
    27    12    33 1   
    28    13    14 1   
    29    13    34 1   
    30    13    35 1   
    31    14    15 1   
    32    14    36 1   
    33    14    37 1   
    34    15    16 1   
    35    15    20 1   
    36    16    17 1   
    37    16    38 1   
    38    16    39 1   
    39    17    18 1   
    40    17    40 1   
    41    17    41 1   
    42    18    19 1   
    43    19    20 1   
    44    19    42 1   
    45    19    43 1   
    46    20    44 1   
    47    20    45 1   
@<TRIPOS>SUBSTRUCTURE
     1 4XL         1 TEMP              0 ****  ****    0 ROOT
