@<TRIPOS>MOLECULE
4XM
   47    49     1     0     0
SMALL
abcg2


@<TRIPOS>ATOM
      1 CAM         -1.7780     1.2350    -0.7580 c6         1 4XM       0.167800
      2 CAI         -2.9500     1.9720    -0.1390 c6         1 4XM      -0.032100
      3 CAR         -4.1550     1.0810    -0.0120 ca         1 4XM      -0.026300
      4 CAD         -5.4240     1.6410     0.1310 ca         1 4XM      -0.152000
      5 CAB         -6.5350     0.8190     0.2260 ca         1 4XM      -0.069000
      6 CAC         -6.3920    -0.5590     0.1720 ca         1 4XM      -0.181000
      7 CAQ         -5.1290    -1.1350     0.0210 ca         1 4XM       0.288000
      8 NAA         -5.0070    -2.5070    -0.1130 nv         1 4XM      -1.071000
      9 CAS         -3.9970    -0.3010    -0.0560 ca         1 4XM      -0.134300
     10 CAN         -2.6380    -0.9260    -0.2350 c6         1 4XM       0.224100
     11 NAU         -1.5490     0.0050    -0.0260 n3         1 4XM      -0.718600
     12 CAL         -0.2710    -0.6110    -0.3360 c3         1 4XM       0.172800
     13 CAE          0.8950     0.0740     0.3640 c3         1 4XM      -0.081400
     14 CAF          2.2220    -0.5060    -0.0860 c3         1 4XM       0.162600
     15 OAP          3.2640     0.1400     0.6070 os         1 4XM      -0.456000
     16 CAT          4.5570    -0.3260     0.2890 c6         1 4XM       0.177300
     17 CAJ          5.5210     0.1840     1.3490 c6         1 4XM      -0.129900
     18 CAG          6.9450    -0.2230     1.0000 c6         1 4XM       0.156100
     19 OAO          7.3300     0.2350    -0.2780 os         1 4XM      -0.447000
     20 CAH          6.4900    -0.2700    -1.2920 c6         1 4XM       0.156100
     21 CAK          5.0360     0.1300    -1.0870 c6         1 4XM      -0.129900
     22 H1          -1.9700     1.0430    -1.8280 h1         1 4XM       0.035200
     23 H2          -0.8880     1.8630    -0.7080 h1         1 4XM       0.035200
     24 H3          -2.6560     2.3430     0.8480 hc         1 4XM       0.056700
     25 H4          -3.2010     2.8500    -0.7370 hc         1 4XM       0.056700
     26 H5          -5.5350     2.7180     0.1580 ha         1 4XM       0.112000
     27 H6          -7.5220     1.2480     0.3400 ha         1 4XM       0.110000
     28 H7          -7.2640    -1.1990     0.2420 ha         1 4XM       0.110000
     29 H8          -5.8070    -3.0330     0.2040 hn         1 4XM       0.442000
     30 H9          -4.1540    -2.9190     0.2320 hn         1 4XM       0.442000
     31 H10         -2.5080    -1.7460     0.4810 h1         1 4XM       0.034200
     32 H11         -2.5950    -1.3920    -1.2370 h1         1 4XM       0.034200
     33 H13         -0.3100    -1.6530    -0.0070 h1         1 4XM       0.028200
     34 H14         -0.0960    -0.6430    -1.4250 h1         1 4XM       0.028200
     35 H15          0.8940     1.1470     0.1530 hc         1 4XM       0.061200
     36 H16          0.7830    -0.0410     1.4450 hc         1 4XM       0.061200
     37 H17          2.2530    -1.5890     0.1030 h1         1 4XM       0.017200
     38 H18          2.3240    -0.3760    -1.1720 h1         1 4XM       0.017200
     39 H19          4.5690    -1.4290     0.3100 h1         1 4XM       0.028700
     40 H20          5.4520     1.2750     1.4150 hc         1 4XM       0.059950
     41 H21          5.2620    -0.2220     2.3300 hc         1 4XM       0.059950
     42 H22          7.6500     0.1980     1.7180 h1         1 4XM       0.043950
     43 H23          7.0360    -1.3190     1.0550 h1         1 4XM       0.043950
     44 H24          6.8630     0.1200    -2.2400 h1         1 4XM       0.043950
     45 H25          6.5660    -1.3670    -1.3390 h1         1 4XM       0.043950
     46 H26          4.4400    -0.3130    -1.8890 hc         1 4XM       0.059950
     47 H27          4.9330     1.2170    -1.1650 hc         1 4XM       0.059950
@<TRIPOS>BOND
     1     1     2 1   
     2     1    11 1   
     3     1    22 1   
     4     1    23 1   
     5     2     3 1   
     6     2    24 1   
     7     2    25 1   
     8     3     4 ar  
     9     3     9 ar  
    10     4     5 ar  
    11     4    26 1   
    12     5     6 ar  
    13     5    27 1   
    14     6     7 ar  
    15     6    28 1   
    16     7     8 1   
    17     7     9 ar  
    18     8    29 1   
    19     8    30 1   
    20     9    10 1   
    21    10    11 1   
    22    10    31 1   
    23    10    32 1   
    24    11    12 1   
    25    12    13 1   
    26    12    33 1   
    27    12    34 1   
    28    13    14 1   
    29    13    35 1   
    30    13    36 1   
    31    14    15 1   
    32    14    37 1   
    33    14    38 1   
    34    15    16 1   
    35    16    17 1   
    36    16    21 1   
    37    16    39 1   
    38    17    18 1   
    39    17    40 1   
    40    17    41 1   
    41    18    19 1   
    42    18    42 1   
    43    18    43 1   
    44    19    20 1   
    45    20    21 1   
    46    20    44 1   
    47    20    45 1   
    48    21    46 1   
    49    21    47 1   
@<TRIPOS>SUBSTRUCTURE
     1 4XM         1 TEMP              0 ****  ****    0 ROOT
