@<TRIPOS>MOLECULE
4XM
   47    49     1     0     0
SMALL
No Charge or Current Charge


@<TRIPOS>ATOM
      1 CAM         -1.8400     1.4320    -0.4730 c6         1 4XM       0.167800
      2 CAI         -3.1030     2.0100     0.2010 c6         1 4XM      -0.032100
      3 CAR         -4.2970     1.0540     0.1690 ca         1 4XM      -0.026300
      4 CAD         -5.5840     1.5500     0.4450 ca         1 4XM      -0.152000
      5 CAB         -6.6920     0.6910     0.4290 ca         1 4XM      -0.069000
      6 CAC         -6.5140    -0.6700     0.1360 ca         1 4XM      -0.181000
      7 CAQ         -5.2340    -1.1790    -0.1350 ca         1 4XM       0.288000
      8 NAA         -5.1190    -2.5160    -0.4250 nv         1 4XM      -1.071000
      9 CAS         -4.1110    -0.3190    -0.1120 ca         1 4XM      -0.134300
     10 CAN         -2.7040    -0.8520    -0.4270 c6         1 4XM       0.224100
     11 NAU         -1.5850     0.0400    -0.0160 n3         1 4XM      -0.718600
     12 CAL         -0.2700    -0.5070    -0.4360 c3         1 4XM       0.172800
     13 CAE          0.9570     0.2090     0.1690 c3         1 4XM      -0.081400
     14 CAF          2.2750    -0.5120    -0.1630 c3         1 4XM       0.162600
     15 OAP          3.3450     0.2370     0.4410 os         1 4XM      -0.456000
     16 CAT          4.6770    -0.3080     0.3420 c6         1 4XM       0.177300
     17 CAJ          5.6360     0.5410     1.2080 c6         1 4XM      -0.129900
     18 CAG          7.0940     0.0580     1.0400 c6         1 4XM       0.156100
     19 OAO          7.4580     0.0840    -0.3560 os         1 4XM      -0.447000
     20 CAH          6.6590    -0.7860    -1.1840 c6         1 4XM       0.156100
     21 CAK          5.1750    -0.3540    -1.1280 c6         1 4XM      -0.129900
     22 H1          -1.9700     1.4530    -1.5650 h1         1 4XM       0.035200
     23 H2          -0.9980     2.0960    -0.2340 h1         1 4XM       0.035200
     24 H3          -2.8710     2.2480     1.2470 hc         1 4XM       0.056700
     25 H4          -3.3660     2.9610    -0.2810 hc         1 4XM       0.056700
     26 H5          -5.7260     2.6040     0.6710 ha         1 4XM       0.112000
     27 H6          -7.6870     1.0780     0.6400 ha         1 4XM       0.110000
     28 H7          -7.3780    -1.3290     0.1200 ha         1 4XM       0.110000
     29 H8          -5.9250    -3.1280    -0.3130 hn         1 4XM       0.442000
     30 H9          -4.2030    -2.9520    -0.4840 hn         1 4XM       0.442000
     31 H10         -2.5770    -1.8280     0.0640 h1         1 4XM       0.034200
     32 H11         -2.6530    -1.0340    -1.5110 h1         1 4XM       0.034200
     33 H13         -0.2130    -1.5620    -0.1350 h1         1 4XM       0.028200
     34 H14         -0.1870    -0.4840    -1.5320 h1         1 4XM       0.028200
     35 H15          1.0170     1.2350    -0.2090 hc         1 4XM       0.061200
     36 H16          0.8410     0.2630     1.2570 hc         1 4XM       0.061200
     37 H17          2.2450    -1.5350     0.2350 h1         1 4XM       0.017200
     38 H18          2.3940    -0.5620    -1.2530 h1         1 4XM       0.017200
     39 H19          4.6630    -1.3320     0.7440 h1         1 4XM       0.028700
     40 H20          5.5660     1.5980     0.9190 hc         1 4XM       0.059950
     41 H21          5.3430     0.4780     2.2640 hc         1 4XM       0.059950
     42 H22          7.7750     0.7140     1.6000 h1         1 4XM       0.043950
     43 H23          7.2060    -0.9660     1.4270 h1         1 4XM       0.043950
     44 H24          7.0270    -0.7340    -2.2190 h1         1 4XM       0.043950
     45 H25          6.7690    -1.8230    -0.8340 h1         1 4XM       0.043950
     46 H26          4.5770    -1.0600    -1.7180 hc         1 4XM       0.059950
     47 H27          5.0620     0.6330    -1.5950 hc         1 4XM       0.059950
@<TRIPOS>BOND
     1     1     2 1   
     2     1    11 1   
     3     1    22 1   
     4     1    23 1   
     5     2     3 1   
     6     2    24 1   
     7     2    25 1   
     8     3     4 ar  
     9     3     9 ar  
    10     4     5 ar  
    11     4    26 1   
    12     5     6 ar  
    13     5    27 1   
    14     6     7 ar  
    15     6    28 1   
    16     7     8 1   
    17     7     9 ar  
    18     8    29 1   
    19     8    30 1   
    20     9    10 1   
    21    10    11 1   
    22    10    31 1   
    23    10    32 1   
    24    11    12 1   
    25    12    13 1   
    26    12    33 1   
    27    12    34 1   
    28    13    14 1   
    29    13    35 1   
    30    13    36 1   
    31    14    15 1   
    32    14    37 1   
    33    14    38 1   
    34    15    16 1   
    35    16    17 1   
    36    16    21 1   
    37    16    39 1   
    38    17    18 1   
    39    17    40 1   
    40    17    41 1   
    41    18    19 1   
    42    18    42 1   
    43    18    43 1   
    44    19    20 1   
    45    20    21 1   
    46    20    44 1   
    47    20    45 1   
    48    21    46 1   
    49    21    47 1   
@<TRIPOS>SUBSTRUCTURE
     1 4XM         1 TEMP              0 ****  ****    0 ROOT
