@<TRIPOS>MOLECULE
4XN
   64    70     1     0     0
SMALL
abcg2


@<TRIPOS>ATOM
      1 C10          4.1230     0.1660    -0.6910 ca         1 4XN      -0.017000
      2 C12          3.6360    -0.6260     0.3330 cp         1 4XN      -0.084000
      3 C13          4.4840    -0.9670     1.4180 ca         1 4XN      -0.062000
      4 C15          5.7890    -0.5430     1.5000 ca         1 4XN      -0.128000
      5 C19          1.4920    -1.2260     1.4720 ca         1 4XN      -0.111000
      6 C21          0.1860    -1.6850     1.4420 ca         1 4XN      -0.077000
      7 C24          0.3500    -1.9780    -0.9330 ca         1 4XN      -0.077000
      8 N29         -2.0610    -3.6880    -0.4230 n2         1 4XN      -0.569900
      9 C30         -3.4590    -3.8620    -0.2610 cx         1 4XN      -0.095800
     10 C31         -4.2950    -4.4990    -1.3450 cx         1 4XN      -0.063900
     11 C34         -4.0560    -5.2380    -0.0870 cx         1 4XN      -0.063900
     12 N05          7.4740     0.8190     0.2260 na         1 4XN       0.077600
     13 N06          7.4800     1.5230    -0.9110 nc         1 4XN      -0.515100
     14 C07          6.2880     1.4160    -1.4440 cd         1 4XN       0.357800
     15 C09          5.4460     0.6150    -0.6300 ca         1 4XN      -0.234900
     16 C17          6.2650     0.2560     0.4540 ca         1 4XN      -0.033200
     17 C18          2.2470    -1.1240     0.3020 cp         1 4XN      -0.003000
     18 C23         -0.4010    -2.0600     0.2360 ca         1 4XN      -0.132900
     19 C26          1.6520    -1.5140    -0.9000 ca         1 4XN      -0.111000
     20 C28         -1.7680    -2.5930     0.1700 ce         1 4XN       0.504500
     21 C37         -3.9780    -2.7110     0.5110 c          1 4XN       0.568000
     22 O38         -5.1130    -2.4490     0.8520 o          1 4XN      -0.513000
     23 N39         -2.8590    -1.9540     0.7600 n          1 4XN      -0.360300
     24 C40         -2.9320    -0.6230     1.3270 c3         1 4XN       0.124000
     25 C43         -3.3230     0.4300     0.3020 c5         1 4XN      -0.109700
     26 C45         -2.3090     0.6590    -0.8150 c5         1 4XN      -0.093400
     27 C48         -2.7020     2.0230    -1.3660 c5         1 4XN       0.108000
     28 N51         -3.2280     2.7180    -0.1930 n          1 4XN      -0.414800
     29 C52         -3.4480     1.8160     0.9290 c5         1 4XN       0.107000
     30 C55         -3.4820     4.0320    -0.0800 c          1 4XN       0.639100
     31 O56         -3.8590     4.5210     0.9830 o          1 4XN      -0.617100
     32 C57         -3.2890     4.8730    -1.2920 cx         1 4XN      -0.239700
     33 C59         -2.6880     6.2440    -1.0970 cx         1 4XN      -0.099400
     34 C62         -4.1300     6.1160    -1.4210 cx         1 4XN      -0.099400
     35 H11          3.4870     0.4580    -1.5170 ha         1 4XN       0.120000
     36 H14          4.0990    -1.6020     2.2050 ha         1 4XN       0.116000
     37 H16          6.4120    -0.8290     2.3370 ha         1 4XN       0.122000
     38 H20          1.9180    -0.9300     2.4220 ha         1 4XN       0.120500
     39 H22         -0.3610    -1.7700     2.3720 ha         1 4XN       0.124500
     40 H25         -0.0880    -2.2800    -1.8760 ha         1 4XN       0.124500
     41 H33         -5.2710    -4.0670    -1.5210 hc         1 4XN       0.088950
     42 H32         -3.7550    -4.8020    -2.2320 hc         1 4XN       0.088950
     43 H35         -3.3510    -6.0590    -0.0940 hc         1 4XN       0.088950
     44 H36         -4.8640    -5.3270     0.6270 hc         1 4XN       0.088950
     45 H04          8.5840     1.6160     1.8210 h1         1 4XN       0.054700
     46 H02          8.6760    -0.1420     1.6200 h1         1 4XN       0.054700
     47 H03          9.5240     0.9150     0.4890 h1         1 4XN       0.054700
     48 H08          6.0600     1.8970    -2.3830 h4         1 4XN       0.051800
     49 H27          2.2200    -1.4740    -1.8210 ha         1 4XN       0.120500
     50 H42         -3.6580    -0.6500     2.1410 h1         1 4XN       0.066700
     51 H41         -1.9720    -0.3660     1.7730 h1         1 4XN       0.066700
     52 H44         -4.2870     0.1590    -0.1400 hc         1 4XN       0.075700
     53 H46         -1.2960     0.6990    -0.4050 hc         1 4XN       0.057700
     54 H47         -2.3250    -0.1100    -1.5870 hc         1 4XN       0.057700
     55 H49         -1.8480     2.5470    -1.7960 h1         1 4XN       0.046200
     56 H50         -3.4670     1.9270    -2.1420 h1         1 4XN       0.046200
     57 H54         -4.4240     1.9800     1.3850 h1         1 4XN       0.057700
     58 H53         -2.6880     1.9670     1.7050 h1         1 4XN       0.057700
     59 H58         -3.0420     4.3750    -2.2200 hc         1 4XN       0.084700
     60 H61         -2.4150     6.5230    -0.0880 hc         1 4XN       0.080450
     61 H60         -2.0120     6.5940    -1.8650 hc         1 4XN       0.080450
     62 H63         -4.4600     6.3760    -2.4180 hc         1 4XN       0.080450
     63 H64         -4.8510     6.3120    -0.6390 hc         1 4XN       0.080450
     64 C01          8.6260     0.8070     1.0910 c3         1 4XN       0.080900
@<TRIPOS>BOND
     1     1     2 ar  
     2     1    15 ar  
     3     1    35 1   
     4     2     3 ar  
     5     2    17 1   
     6     3     4 ar  
     7     3    36 1   
     8     4    16 ar  
     9     4    37 1   
    10     5     6 ar  
    11     5    17 ar  
    12     5    38 1   
    13     6    18 ar  
    14     6    39 1   
    15     7    18 ar  
    16     7    19 ar  
    17     7    40 1   
    18     8     9 1   
    19     8    20 2   
    20     9    10 1   
    21     9    11 1   
    22     9    21 1   
    23    10    11 1   
    24    10    41 1   
    25    10    42 1   
    26    11    43 1   
    27    11    44 1   
    28    12    13 1   
    29    12    16 1   
    30    12    64 1   
    31    13    14 2   
    32    14    15 1   
    33    14    48 1   
    34    15    16 ar  
    35    17    19 ar  
    36    18    20 1   
    37    19    49 1   
    38    20    23 1   
    39    21    22 2   
    40    21    23 1   
    41    23    24 1   
    42    24    25 1   
    43    24    50 1   
    44    24    51 1   
    45    25    26 1   
    46    25    29 1   
    47    25    52 1   
    48    26    27 1   
    49    26    53 1   
    50    26    54 1   
    51    27    28 1   
    52    27    55 1   
    53    27    56 1   
    54    28    29 1   
    55    28    30 1   
    56    29    57 1   
    57    29    58 1   
    58    30    31 2   
    59    30    32 1   
    60    32    33 1   
    61    32    34 1   
    62    32    59 1   
    63    33    34 1   
    64    33    60 1   
    65    33    61 1   
    66    34    62 1   
    67    34    63 1   
    68    45    64 1   
    69    46    64 1   
    70    47    64 1   
@<TRIPOS>SUBSTRUCTURE
     1 4XN         1 TEMP              0 ****  ****    0 ROOT
