@<TRIPOS>MOLECULE
4XN
   64    70     1     0     0
SMALL
No Charge or Current Charge


@<TRIPOS>ATOM
      1 C10          4.5680     0.0430    -0.6590 ca         1 4XN      -0.017000
      2 C12          3.8990    -0.7240     0.3380 cp         1 4XN      -0.084000
      3 C13          4.6540    -1.1680     1.4690 ca         1 4XN      -0.062000
      4 C15          6.0250    -0.8620     1.6070 ca         1 4XN      -0.128000
      5 C19          1.6000    -1.1300     1.3380 ca         1 4XN      -0.111000
      6 C21          0.2350    -1.4380     1.2130 ca         1 4XN      -0.077000
      7 C24          0.5020    -1.6240    -1.1910 ca         1 4XN      -0.077000
      8 N29         -2.0860    -3.0430    -0.9700 n2         1 4XN      -0.569900
      9 C30         -3.2260    -3.6660    -0.2760 cx         1 4XN      -0.095800
     10 C31         -4.2640    -4.4410    -1.0570 cx         1 4XN      -0.063900
     11 C34         -3.3070    -5.1700    -0.1400 cx         1 4XN      -0.063900
     12 N05          7.9270     0.3470     0.4550 na         1 4XN       0.077600
     13 N06          8.0890     1.0820    -0.7240 nc         1 4XN      -0.515100
     14 C07          6.8700     1.0670    -1.2930 cd         1 4XN       0.357800
     15 C09          5.9280     0.3260    -0.4840 ca         1 4XN      -0.234900
     16 C17          6.6280    -0.1040     0.5950 ca         1 4XN      -0.033200
     17 C18          2.4450    -1.0550     0.2040 cp         1 4XN      -0.003000
     18 C23         -0.3360    -1.6690    -0.0580 ca         1 4XN      -0.132900
     19 C26          1.8670    -1.3140    -1.0620 ca         1 4XN      -0.111000
     20 C28         -1.7860    -2.0190    -0.2190 ce         1 4XN       0.504500
     21 C37         -3.6410    -2.7830     0.8710 c          1 4XN       0.568000
     22 O38         -4.6230    -2.8690     1.5970 o          1 4XN      -0.513000
     23 N39         -2.7010    -1.7810     0.8400 n          1 4XN      -0.360300
     24 C40         -2.9680    -0.4290     1.3760 c3         1 4XN       0.124000
     25 C43         -3.4880     0.5970     0.3390 c5         1 4XN      -0.109700
     26 C45         -2.4550     1.0870    -0.7160 c5         1 4XN      -0.093400
     27 C48         -3.1900     2.2920    -1.3530 c5         1 4XN       0.108000
     28 N51         -3.9010     2.8550    -0.1870 n          1 4XN      -0.414800
     29 C52         -3.9220     1.9470     0.9760 c5         1 4XN       0.107000
     30 C55         -4.5260     4.1160    -0.1690 c          1 4XN       0.639100
     31 O56         -5.1180     4.5330     0.8190 o          1 4XN      -0.617100
     32 C57         -4.4340     4.9140    -1.4560 cx         1 4XN      -0.239700
     33 C59         -3.1630     5.6920    -1.7380 cx         1 4XN      -0.099400
     34 C62         -4.4330     6.4310    -1.3930 cx         1 4XN      -0.099400
     35 H11          4.0380     0.4170    -1.5320 ha         1 4XN       0.120000
     36 H14          4.1740    -1.7670     2.2390 ha         1 4XN       0.116000
     37 H16          6.5910    -1.2070     2.4700 ha         1 4XN       0.122000
     38 H20          2.0040    -0.9390     2.3280 ha         1 4XN       0.120500
     39 H22         -0.3690    -1.5080     2.1140 ha         1 4XN       0.124500
     40 H25          0.0930    -1.8220    -2.1790 ha         1 4XN       0.124500
     41 H33         -5.3030    -4.3640    -0.7460 hc         1 4XN       0.088950
     42 H32         -4.1180    -4.5500    -2.1290 hc         1 4XN       0.088950
     43 H35         -2.5220    -5.7670    -0.5990 hc         1 4XN       0.088950
     44 H36         -3.7070    -5.5800     0.7850 hc         1 4XN       0.088950
     45 H04          8.7360     0.5150     2.3940 h1         1 4XN       0.054700
     46 H02          9.1620    -0.9880     1.5200 h1         1 4XN       0.054700
     47 H03          9.9370     0.5600     1.0690 h1         1 4XN       0.054700
     48 H08          6.7210     1.5760    -2.2370 h4         1 4XN       0.051800
     49 H27          2.4840    -1.2900    -1.9560 ha         1 4XN       0.120500
     50 H42         -3.7100    -0.5150     2.1810 h1         1 4XN       0.066700
     51 H41         -2.0530    -0.0330     1.8330 h1         1 4XN       0.066700
     52 H44         -4.3490     0.1350    -0.1600 hc         1 4XN       0.075700
     53 H46         -1.5170     1.4030    -0.2430 hc         1 4XN       0.057700
     54 H47         -2.2050     0.3300    -1.4670 hc         1 4XN       0.057700
     55 H49         -2.4830     3.0000    -1.8050 h1         1 4XN       0.046200
     56 H50         -3.9050     1.9680    -2.1220 h1         1 4XN       0.046200
     57 H54         -4.9170     1.8810     1.4370 h1         1 4XN       0.057700
     58 H53         -3.2070     2.2870     1.7390 h1         1 4XN       0.057700
     59 H58         -4.9400     4.4670    -2.3070 hc         1 4XN       0.084700
     60 H61         -2.3720     5.6690    -0.9910 hc         1 4XN       0.080450
     61 H60         -2.8130     5.7380    -2.7670 hc         1 4XN       0.080450
     62 H63         -4.9370     6.9720    -2.1910 hc         1 4XN       0.080450
     63 H64         -4.4880     6.9100    -0.4180 hc         1 4XN       0.080450
     64 C01          9.0080     0.0930     1.4190 c3         1 4XN       0.080900
@<TRIPOS>BOND
     1     1     2 ar  
     2     1    15 ar  
     3     1    35 1   
     4     2     3 ar  
     5     2    17 1   
     6     3     4 ar  
     7     3    36 1   
     8     4    16 ar  
     9     4    37 1   
    10     5     6 ar  
    11     5    17 ar  
    12     5    38 1   
    13     6    18 ar  
    14     6    39 1   
    15     7    18 ar  
    16     7    19 ar  
    17     7    40 1   
    18     8     9 1   
    19     8    20 2   
    20     9    10 1   
    21     9    11 1   
    22     9    21 1   
    23    10    11 1   
    24    10    41 1   
    25    10    42 1   
    26    11    43 1   
    27    11    44 1   
    28    12    13 1   
    29    12    16 1   
    30    12    64 1   
    31    13    14 2   
    32    14    15 1   
    33    14    48 1   
    34    15    16 ar  
    35    17    19 ar  
    36    18    20 1   
    37    19    49 1   
    38    20    23 1   
    39    21    22 2   
    40    21    23 1   
    41    23    24 1   
    42    24    25 1   
    43    24    50 1   
    44    24    51 1   
    45    25    26 1   
    46    25    29 1   
    47    25    52 1   
    48    26    27 1   
    49    26    53 1   
    50    26    54 1   
    51    27    28 1   
    52    27    55 1   
    53    27    56 1   
    54    28    29 1   
    55    28    30 1   
    56    29    57 1   
    57    29    58 1   
    58    30    31 2   
    59    30    32 1   
    60    32    33 1   
    61    32    34 1   
    62    32    59 1   
    63    33    34 1   
    64    33    60 1   
    65    33    61 1   
    66    34    62 1   
    67    34    63 1   
    68    45    64 1   
    69    46    64 1   
    70    47    64 1   
@<TRIPOS>SUBSTRUCTURE
     1 4XN         1 TEMP              0 ****  ****    0 ROOT
