@<TRIPOS>MOLECULE
4XO
   45    48     1     0     0
SMALL
No Charge or Current Charge


@<TRIPOS>ATOM
      1 C10          6.4470    -0.0940    -0.7140 cc         1 4XO      -0.208000
      2 C11          5.4300     0.5790     1.2100 cd         1 4XO      -0.198100
      3 C14          6.6340     0.5460     0.5360 cc         1 4XO      -0.020700
      4 C17         -5.1650     0.9510    -0.2100 ca         1 4XO      -0.159500
      5 C18         -6.5120     1.3440    -0.1110 ca         1 4XO      -0.041000
      6 N2          -2.1150     1.2440     0.2690 nb         1 4XO      -0.294000
      7 C9          -0.8680     1.7520     0.1850 ca         1 4XO       0.204900
      8 N01          0.2500     1.0270    -0.0130 nb         1 4XO      -0.284000
      9 C04          0.0430    -0.2980    -0.1150 ca         1 4XO       0.429900
     10 N3          -1.1460    -0.9120    -0.0640 nb         1 4XO      -0.349000
     11 C12         -2.1870    -0.0900     0.1240 ca         1 4XO       0.432900
     12 N4          -3.4140    -0.7210     0.2210 nu         1 4XO      -0.920900
     13 C13         -7.4510     0.4950     0.5040 ca         1 4XO      -0.052000
     14 C02         -7.0330    -0.7490     1.0120 ca         1 4XO      -0.041000
     15 C15         -5.6840    -1.1350     0.9090 ca         1 4XO      -0.159500
     16 C01         -4.7390    -0.2860     0.3100 ca         1 4XO       0.339000
     17 N5          -9.9500     1.2070     0.6880 n1         1 4XO      -0.456000
     18 N19          8.8990     1.4930     1.3740 n1         1 4XO      -0.464000
     19 C16          7.8850     1.0630     0.9840 cg         1 4XO       0.316700
     20 N0W          4.5030    -0.0500     0.3650 na         1 4XO       0.160100
     21 C0X          3.1490    -0.2700     0.6300 cc         1 4XO      -0.051300
     22 C0V          5.1320    -0.4440    -0.7900 cd         1 4XO      -0.112000
     23 C0Y          2.4820    -0.8850    -0.4550 cd         1 4XO       0.257000
     24 C0Z          3.1080    -1.3070    -1.6480 cc         1 4XO      -0.082300
     25 C0C          4.4620    -1.1000    -1.8450 cd         1 4XO      -0.072000
     26 C7           2.5600     0.1090     1.9770 c3         1 4XO      -0.053800
     27 C8           2.3290    -1.9860    -2.7600 c3         1 4XO      -0.044800
     28 H1           7.2190    -0.2640    -1.4630 ha         1 4XO       0.218000
     29 H2           5.1790     0.9880     2.1820 h4         1 4XO       0.233000
     30 H3          -4.4630     1.6090    -0.7110 ha         1 4XO       0.138000
     31 H4          -6.8240     2.3040    -0.5190 ha         1 4XO       0.127000
     32 H5           0.8400    -2.0240    -0.7350 hn         1 4XO       0.520000
     33 H6          -0.7570     2.8310     0.2860 h5         1 4XO       0.054100
     34 H7          -3.3080    -1.7290     0.3180 hn         1 4XO       0.513000
     35 H8          -7.7500    -1.4170     1.4860 ha         1 4XO       0.127000
     36 H9          -5.3750    -2.0980     1.3060 ha         1 4XO       0.138000
     37 H10          4.9780    -1.4060    -2.7500 ha         1 4XO       0.135000
     38 H11          2.3780     1.1880     2.0340 hc         1 4XO       0.061700
     39 H12          1.6130    -0.4050     2.1740 hc         1 4XO       0.061700
     40 H13          3.2330    -0.1660     2.7970 hc         1 4XO       0.061700
     41 H14          1.4910    -1.3610    -3.0930 hc         1 4XO       0.047367
     42 H15          2.9550    -2.1790    -3.6390 hc         1 4XO       0.047367
     43 H16          1.9280    -2.9510    -2.4290 hc         1 4XO       0.047367
     44 N1           1.1250    -1.1260    -0.3490 nu         1 4XO      -0.936900
     45 C19         -8.8280     0.8930     0.6070 cg         1 4XO       0.329000
@<TRIPOS>BOND
     1     1     3 1   
     2     1    22 2   
     3     1    28 1   
     4     2     3 2   
     5     2    20 1   
     6     2    29 1   
     7     3    19 1   
     8     4     5 ar  
     9     4    16 ar  
    10     4    30 1   
    11     5    13 ar  
    12     5    31 1   
    13     6     7 ar  
    14     6    11 ar  
    15     7     8 ar  
    16     7    33 1   
    17     8     9 ar  
    18     9    10 ar  
    19     9    44 1   
    20    10    11 ar  
    21    11    12 1   
    22    12    16 1   
    23    12    34 1   
    24    13    14 ar  
    25    13    45 1   
    26    14    15 ar  
    27    14    35 1   
    28    15    16 ar  
    29    15    36 1   
    30    17    45 3   
    31    18    19 3   
    32    20    21 1   
    33    20    22 1   
    34    21    23 2   
    35    21    26 1   
    36    22    25 1   
    37    23    24 1   
    38    23    44 1   
    39    24    25 2   
    40    24    27 1   
    41    25    37 1   
    42    26    38 1   
    43    26    39 1   
    44    26    40 1   
    45    27    41 1   
    46    27    42 1   
    47    27    43 1   
    48    32    44 1   
@<TRIPOS>SUBSTRUCTURE
     1 4XO         1 TEMP              0 ****  ****    0 ROOT
