@<TRIPOS>MOLECULE
4XO
   45    48     1     0     0
SMALL
bcc


@<TRIPOS>ATOM
      1 C10          6.3290     0.1740    -0.8590 cc         1 4XO      -0.158000
      2 C11          5.3230     0.7150     1.1100 cd         1 4XO      -0.148100
      3 C14          6.4930     0.8250     0.3820 cc         1 4XO      -0.020700
      4 C17         -4.9370     1.1120     0.2710 ca         1 4XO      -0.177500
      5 C18         -6.2490     1.5420     0.3250 ca         1 4XO      -0.059000
      6 N2          -2.0340     1.0810    -0.0310 nb         1 4XO      -0.820000
      7 C9          -0.7860     1.4910    -0.1930 ca         1 4XO       0.730900
      8 N01          0.2970     0.7450    -0.2060 nb         1 4XO      -0.810000
      9 C04          0.0600    -0.5610    -0.0250 ca         1 4XO       0.955900
     10 N3          -1.1430    -1.0990     0.1410 nb         1 4XO      -0.875000
     11 C12         -2.1530    -0.2370     0.1270 ca         1 4XO       0.958900
     12 N4          -3.3780    -0.8020     0.2840 nu         1 4XO      -0.727300
     13 C13         -7.2980     0.6300     0.4290 ca         1 4XO      -0.052000
     14 C02         -7.0140    -0.7360     0.4800 ca         1 4XO      -0.059000
     15 C15         -5.7090    -1.1690     0.4270 ca         1 4XO      -0.177500
     16 C01         -4.6480    -0.2560     0.3220 ca         1 4XO       0.200600
     17 N5          -9.7360     1.4560     0.5300 n1         1 4XO      -0.366800
     18 N19          8.6070     2.0350     1.1920 n1         1 4XO      -0.374800
     19 C16          7.6560     1.4930     0.8310 cg         1 4XO       0.227500
     20 N0W          4.4460     0.0120     0.3460 na         1 4XO       0.058700
     21 C0X          3.1550    -0.3540     0.6670 cc         1 4XO      -0.000600
     22 C0V          5.0440    -0.3270    -0.8660 cd         1 4XO      -0.061300
     23 C0Y          2.4410    -1.0350    -0.2700 cd         1 4XO       0.118600
     24 C0Z          3.0020    -1.4040    -1.5400 cc         1 4XO      -0.082300
     25 C0C          4.2870    -1.0560    -1.8100 cd         1 4XO      -0.090000
     26 C7           2.6650     0.0420     2.0120 c3         1 4XO      -0.053800
     27 C8           2.1670    -2.1590    -2.5260 c3         1 4XO      -0.044800
     28 H1           7.0560     0.0840    -1.6490 ha         1 4XO       0.168000
     29 H2           5.0810     1.0930     2.0870 h4         1 4XO       0.183000
     30 H3          -4.1440     1.8360     0.1910 ha         1 4XO       0.156000
     31 H4          -6.4560     2.6030     0.2880 ha         1 4XO       0.145000
     32 H5           0.8840    -2.3880     0.0680 hn         1 4XO       0.464800
     33 H6          -0.6450     2.5580    -0.3320 h5         1 4XO       0.054100
     34 H7          -3.3380    -1.8080     0.3680 hn         1 4XO       0.457800
     35 H8          -7.8150    -1.4580     0.5590 ha         1 4XO       0.145000
     36 H9          -5.5030    -2.2310     0.4650 ha         1 4XO       0.156000
     37 H10          4.7530    -1.3170    -2.7510 ha         1 4XO       0.153000
     38 H11          2.5660     1.1270     2.0910 hc         1 4XO       0.061700
     39 H12          1.6980    -0.4010     2.2250 hc         1 4XO       0.061700
     40 H13          3.3600    -0.2830     2.7890 hc         1 4XO       0.061700
     41 H14          1.2550    -1.6160    -2.7800 hc         1 4XO       0.047367
     42 H15          2.7210    -2.3330    -3.4460 hc         1 4XO       0.047367
     43 H16          1.8610    -3.1320    -2.1350 hc         1 4XO       0.047367
     44 N1           1.1080    -1.4050     0.0030 nu         1 4XO      -0.743300
     45 C19         -8.6450     1.0870     0.4850 cg         1 4XO       0.239800
@<TRIPOS>BOND
     1     1     3 1   
     2     1    22 2   
     3     1    28 1   
     4     2     3 2   
     5     2    20 1   
     6     2    29 1   
     7     3    19 1   
     8     4     5 ar  
     9     4    16 ar  
    10     4    30 1   
    11     5    13 ar  
    12     5    31 1   
    13     6     7 ar  
    14     6    11 ar  
    15     7     8 ar  
    16     7    33 1   
    17     8     9 ar  
    18     9    10 ar  
    19     9    44 1   
    20    10    11 ar  
    21    11    12 1   
    22    12    16 1   
    23    12    34 1   
    24    13    14 ar  
    25    13    45 1   
    26    14    15 ar  
    27    14    35 1   
    28    15    16 ar  
    29    15    36 1   
    30    17    45 3   
    31    18    19 3   
    32    20    21 1   
    33    20    22 1   
    34    21    23 2   
    35    21    26 1   
    36    22    25 1   
    37    23    24 1   
    38    23    44 1   
    39    24    25 2   
    40    24    27 1   
    41    25    37 1   
    42    26    38 1   
    43    26    39 1   
    44    26    40 1   
    45    27    41 1   
    46    27    42 1   
    47    27    43 1   
    48    32    44 1   
@<TRIPOS>SUBSTRUCTURE
     1 4XO         1 TEMP              0 ****  ****    0 ROOT
