@<TRIPOS>MOLECULE
4XP
   29    30     1     0     0
SMALL
No Charge or Current Charge


@<TRIPOS>ATOM
      1 C4           0.0010     0.6700    -0.0440 c3         1 4XP      -0.072400
      2 C5          -1.2900     1.4980    -0.2280 c3         1 4XP      -0.091200
      3 C6          -2.5290     0.6460    -0.2940 cc         1 4XP       0.209300
      4 N1          -4.3460    -0.4290     0.0950 na         1 4XP       0.126800
      5 C7          -3.4250     0.3970     0.6970 cd         1 4XP      -0.214500
      6 C8          -5.5480    -1.0220     0.6920 c3         1 4XP       0.062900
      7 N2          -4.0020    -0.6560    -1.2130 nd         1 4XP      -0.206300
      8 N3          -2.8940     0.0040    -1.4430 nc         1 4XP      -0.361500
      9 N4           2.9070     0.2330     1.4210 nc         1 4XP      -0.361500
     10 C3           1.2750     1.5400     0.0400 c3         1 4XP      -0.091200
     11 C2           2.5310     0.7280     0.2050 cc         1 4XP       0.209300
     12 C1           3.4330     0.3830    -0.7510 cd         1 4XP      -0.214500
     13 N5           4.0290    -0.4260     1.2690 nd         1 4XP      -0.206300
     14 N            4.3700    -0.3480    -0.0570 na         1 4XP       0.126800
     15 C            5.5850    -0.9820    -0.5820 c3         1 4XP       0.062900
     16 H1          -0.0860     0.0680     0.8700 hc         1 4XP       0.055700
     17 H2           0.1010    -0.0340    -0.8800 hc         1 4XP       0.055700
     18 H3          -1.3830     2.2080     0.6030 hc         1 4XP       0.049700
     19 H4          -1.2090     2.0980    -1.1420 hc         1 4XP       0.049700
     20 H5          -3.4750     0.7250     1.7270 h4         1 4XP       0.166000
     21 H6          -5.4810    -2.1150     0.6410 h1         1 4XP       0.063200
     22 H7          -5.6320    -0.7130     1.7410 h1         1 4XP       0.063200
     23 H8          -6.4350    -0.6840     0.1430 h1         1 4XP       0.063200
     24 H9           1.3540     2.1500    -0.8680 hc         1 4XP       0.049700
     25 H10          1.1800     2.2420     0.8770 hc         1 4XP       0.049700
     26 H11          3.4780     0.5870    -1.8120 h4         1 4XP       0.166000
     27 H12          6.4640    -0.5640    -0.0770 h1         1 4XP       0.063200
     28 H13          5.5400    -2.0630    -0.4020 h1         1 4XP       0.063200
     29 H14          5.6630    -0.7970    -1.6600 h1         1 4XP       0.063200
@<TRIPOS>BOND
     1     1     2 1   
     2     1    10 1   
     3     1    16 1   
     4     1    17 1   
     5     2     3 1   
     6     2    18 1   
     7     2    19 1   
     8     3     5 2   
     9     3     8 1   
    10     4     5 1   
    11     4     6 1   
    12     4     7 1   
    13     5    20 1   
    14     6    21 1   
    15     6    22 1   
    16     6    23 1   
    17     7     8 2   
    18     9    11 1   
    19     9    13 2   
    20    10    11 1   
    21    10    24 1   
    22    10    25 1   
    23    11    12 2   
    24    12    14 1   
    25    12    26 1   
    26    13    14 1   
    27    14    15 1   
    28    15    27 1   
    29    15    28 1   
    30    15    29 1   
@<TRIPOS>SUBSTRUCTURE
     1 4XP         1 TEMP              0 ****  ****    0 ROOT
