@<TRIPOS>MOLECULE
4XP
   29    30     1     0     0
SMALL
bcc


@<TRIPOS>ATOM
      1 C4           0.0070     0.6500    -0.0010 c3         1 4XP      -0.072400
      2 C5          -1.2550     1.5090    -0.0760 c3         1 4XP      -0.091200
      3 C6          -2.4960     0.6970    -0.2100 cc         1 4XP       0.274600
      4 N1          -4.3320    -0.3780     0.0730 na         1 4XP       0.105400
      5 C7          -3.4620     0.4140     0.7220 cd         1 4XP      -0.247100
      6 C8          -5.5350    -0.9950     0.5850 c3         1 4XP       0.033600
      7 N2          -3.9420    -0.5820    -1.1710 nd         1 4XP      -0.206300
      8 N3          -2.8390     0.0610    -1.3530 nc         1 4XP      -0.361500
      9 N4           2.8740     0.0400     1.3290 nc         1 4XP      -0.361500
     10 C3           1.2690     1.5060     0.1000 c3         1 4XP      -0.091200
     11 C2           2.5100     0.6900     0.2020 cc         1 4XP       0.274600
     12 C1           3.4520     0.4080    -0.7550 cd         1 4XP      -0.247100
     13 N5           3.9690    -0.6090     1.1160 nd         1 4XP      -0.206300
     14 N            4.3280    -0.4000    -0.1350 na         1 4XP       0.105400
     15 C            5.5550    -0.9580    -0.6570 c3         1 4XP       0.033600
     16 H1          -0.0550    -0.0170     0.8630 hc         1 4XP       0.055700
     17 H2           0.0680     0.0100    -0.8860 hc         1 4XP       0.055700
     18 H3          -1.3290     2.1310     0.8200 hc         1 4XP       0.049700
     19 H4          -1.1740     2.1940    -0.9240 hc         1 4XP       0.049700
     20 H5          -3.5920     0.7100     1.7490 h4         1 4XP       0.184000
     21 H6          -5.2880    -1.8000     1.2730 h1         1 4XP       0.063200
     22 H7          -6.1410    -0.2540     1.1000 h1         1 4XP       0.063200
     23 H8          -6.0970    -1.3980    -0.2520 h1         1 4XP       0.063200
     24 H9           1.3390     2.1590    -0.7720 hc         1 4XP       0.049700
     25 H10          1.1910     2.1610     0.9730 hc         1 4XP       0.049700
     26 H11          3.5580     0.7110    -1.7840 h4         1 4XP       0.184000
     27 H12          6.3520    -0.2170    -0.6350 h1         1 4XP       0.063200
     28 H13          5.8380    -1.8100    -0.0460 h1         1 4XP       0.063200
     29 H14          5.4000    -1.2890    -1.6800 h1         1 4XP       0.063200
@<TRIPOS>BOND
     1     1     2 1   
     2     1    10 1   
     3     1    16 1   
     4     1    17 1   
     5     2     3 1   
     6     2    18 1   
     7     2    19 1   
     8     3     5 2   
     9     3     8 1   
    10     4     5 1   
    11     4     6 1   
    12     4     7 1   
    13     5    20 1   
    14     6    21 1   
    15     6    22 1   
    16     6    23 1   
    17     7     8 2   
    18     9    11 1   
    19     9    13 2   
    20    10    11 1   
    21    10    24 1   
    22    10    25 1   
    23    11    12 2   
    24    12    14 1   
    25    12    26 1   
    26    13    14 1   
    27    14    15 1   
    28    15    27 1   
    29    15    28 1   
    30    15    29 1   
@<TRIPOS>SUBSTRUCTURE
     1 4XP         1 TEMP              0 ****  ****    0 ROOT
