@<TRIPOS>MOLECULE
4XQ
   47    48     1     0     0
SMALL
No Charge or Current Charge


@<TRIPOS>ATOM
      1 C14          8.0440     0.1040     0.1390 c3         1 4XQ      -0.096400
      2 C15          6.8480     1.0820     0.1280 c3         1 4XQ       0.079600
      3 C16          4.7220    -0.3110     0.3140 cc         1 4XQ      -0.215500
      4 N6           5.6090     0.4720    -0.3800 na         1 4XQ       0.125800
      5 C17          3.7690    -0.6080    -0.6170 cd         1 4XQ       0.208300
      6 C18          2.5300    -1.4470    -0.4410 c3         1 4XQ      -0.089700
      7 N7           4.1010    -0.0150    -1.8180 nd         1 4XQ      -0.362000
      8 C19          1.2610    -0.5950    -0.2220 c3         1 4XQ      -0.073400
      9 C20         -0.0130    -1.4450    -0.0260 c3         1 4XQ      -0.075400
     10 C21         -1.2810    -0.5910     0.1940 c3         1 4XQ      -0.073400
     11 C22         -2.5570    -1.4400     0.3900 c3         1 4XQ      -0.089700
     12 N8           5.2200     0.6430    -1.6760 nc         1 4XQ      -0.207300
     13 C23         -3.7930    -0.6050     0.5880 cc         1 4XQ       0.208300
     14 C24         -4.7360    -0.2790    -0.3340 cd         1 4XQ      -0.215500
     15 N9          -5.6300     0.4870     0.3790 na         1 4XQ       0.125800
     16 C29         -9.3550     0.7970    -0.6830 c3         1 4XQ      -0.090100
     17 C30         -8.0610     0.1380    -0.1650 c3         1 4XQ      -0.096400
     18 N11         -5.2240     0.6040     1.6850 nd         1 4XQ      -0.207300
     19 N12         -4.1040    -0.0640     1.8030 nc         1 4XQ      -0.362000
     20 C31          9.3400     0.7430     0.6750 c3         1 4XQ      -0.090100
     21 H1           7.7920    -0.7690     0.7550 hc         1 4XQ       0.058200
     22 H2           8.2200    -0.2630    -0.8800 hc         1 4XQ       0.058200
     23 H3           6.6610     1.4410     1.1480 h1         1 4XQ       0.066450
     24 H4           7.0930     1.9530    -0.4930 h1         1 4XQ       0.066450
     25 H5           4.8320    -0.5790     1.3550 h4         1 4XQ       0.164000
     26 H6           2.3890    -2.0860    -1.3220 hc         1 4XQ       0.048200
     27 H7           2.6630    -2.1210     0.4130 hc         1 4XQ       0.048200
     28 H8           1.4080     0.0460     0.6570 hc         1 4XQ       0.049200
     29 H9           1.1220     0.0720    -1.0820 hc         1 4XQ       0.049200
     30 H10         -0.1580    -2.0850    -0.9050 hc         1 4XQ       0.034700
     31 H11          0.1270    -2.1100     0.8350 hc         1 4XQ       0.034700
     32 H12         -1.1370     0.0500     1.0730 hc         1 4XQ       0.049200
     33 H13         -1.4230     0.0750    -0.6660 hc         1 4XQ       0.049200
     34 H14         -2.6950    -2.0890    -0.4840 hc         1 4XQ       0.048200
     35 H15         -2.4210    -2.1040     1.2520 hc         1 4XQ       0.048200
     36 H16         -4.8360    -0.5190    -1.3840 h4         1 4XQ       0.164000
     37 H17         -7.1130     1.9620     0.5400 h1         1 4XQ       0.066450
     38 H18         -6.6730     1.5120    -1.1170 h1         1 4XQ       0.066450
     39 H19         -9.2140     1.1820    -1.7010 hc         1 4XQ       0.038367
     40 H20        -10.1740     0.0680    -0.7030 hc         1 4XQ       0.038367
     41 H21         -9.6530     1.6310    -0.0350 hc         1 4XQ       0.038367
     42 H22         -7.8070    -0.7110    -0.8120 hc         1 4XQ       0.058200
     43 H23         -8.2410    -0.2660     0.8390 hc         1 4XQ       0.058200
     44 H24          9.2040     1.0900     1.7070 hc         1 4XQ       0.038367
     45 H25         10.1590     0.0140     0.6640 hc         1 4XQ       0.038367
     46 H26          9.6350     1.6000     0.0580 hc         1 4XQ       0.038367
     47 C25         -6.8660     1.1150    -0.1120 c3         1 4XQ       0.079600
@<TRIPOS>BOND
     1     1     2 1   
     2     1    20 1   
     3     1    21 1   
     4     1    22 1   
     5     2     4 1   
     6     2    23 1   
     7     2    24 1   
     8     3     4 1   
     9     3     5 2   
    10     3    25 1   
    11     4    12 1   
    12     5     6 1   
    13     5     7 1   
    14     6     8 1   
    15     6    26 1   
    16     6    27 1   
    17     7    12 2   
    18     8     9 1   
    19     8    28 1   
    20     8    29 1   
    21     9    10 1   
    22     9    30 1   
    23     9    31 1   
    24    10    11 1   
    25    10    32 1   
    26    10    33 1   
    27    11    13 1   
    28    11    34 1   
    29    11    35 1   
    30    13    14 2   
    31    13    19 1   
    32    14    15 1   
    33    14    36 1   
    34    15    18 1   
    35    15    47 1   
    36    16    17 1   
    37    16    39 1   
    38    16    40 1   
    39    16    41 1   
    40    17    42 1   
    41    17    43 1   
    42    17    47 1   
    43    18    19 2   
    44    20    44 1   
    45    20    45 1   
    46    20    46 1   
    47    37    47 1   
    48    38    47 1   
@<TRIPOS>SUBSTRUCTURE
     1 4XQ         1 TEMP              0 ****  ****    0 ROOT
