@<TRIPOS>MOLECULE
4XQ
   47    48     1     0     0
SMALL
abcg2


@<TRIPOS>ATOM
      1 C14          8.0810     0.1660    -0.1250 c3         1 4XQ      -0.096400
      2 C15          6.9200     0.9160     0.5130 c3         1 4XQ       0.079600
      3 C16          4.7840    -0.4140     0.6100 cc         1 4XQ      -0.215500
      4 N6           5.6330     0.4530     0.0310 na         1 4XQ       0.125800
      5 C17          3.7690    -0.5630    -0.3030 cd         1 4XQ       0.208300
      6 C18          2.5210    -1.3710    -0.2150 c3         1 4XQ      -0.089700
      7 N7           4.0690     0.2150    -1.3670 nd         1 4XQ      -0.362000
      8 C19          1.2600    -0.5110    -0.1170 c3         1 4XQ      -0.073400
      9 C20         -0.0090    -1.3500    -0.0470 c3         1 4XQ      -0.075400
     10 C21         -1.2720    -0.5050     0.0430 c3         1 4XQ      -0.073400
     11 C22         -2.5390    -1.3580     0.1220 c3         1 4XQ      -0.089700
     12 N8           5.1920     0.8160    -1.1570 nc         1 4XQ      -0.207300
     13 C23         -3.7820    -0.5460     0.2380 cc         1 4XQ       0.208300
     14 C24         -4.8130    -0.3860    -0.6530 cd         1 4XQ      -0.215500
     15 N9          -5.6480     0.4780    -0.0500 na         1 4XQ       0.125800
     16 C29         -9.4380     0.7030    -0.3420 c3         1 4XQ      -0.090100
     17 C30         -8.0930     0.2030     0.1630 c3         1 4XQ      -0.096400
     18 N11         -5.1830     0.8300     1.1330 nd         1 4XQ      -0.207300
     19 N12         -4.0590     0.2230     1.3160 nc         1 4XQ      -0.362000
     20 C31          9.4160     0.6600     0.4100 c3         1 4XQ      -0.090100
     21 H1           7.9700    -0.9040     0.0700 hc         1 4XQ       0.058200
     22 H2           8.0410     0.2970    -1.2090 hc         1 4XQ       0.058200
     23 H3           6.9270     0.7880     1.5950 h1         1 4XQ       0.066450
     24 H4           6.9890     1.9850     0.3090 h1         1 4XQ       0.066450
     25 H5           4.9530    -0.8390     1.5850 h4         1 4XQ       0.164000
     26 H6           2.4440    -2.0210    -1.0920 hc         1 4XQ       0.048200
     27 H7           2.5840    -2.0310     0.6530 hc         1 4XQ       0.048200
     28 H8           1.3270     0.1300     0.7680 hc         1 4XQ       0.049200
     29 H9           1.2100     0.1590    -0.9800 hc         1 4XQ       0.049200
     30 H10         -0.0670    -1.9990    -0.9280 hc         1 4XQ       0.034700
     31 H11          0.0450    -2.0190     0.8190 hc         1 4XQ       0.034700
     32 H12         -1.2190     0.1430     0.9220 hc         1 4XQ       0.049200
     33 H13         -1.3350     0.1580    -0.8250 hc         1 4XQ       0.049200
     34 H14         -2.6100    -1.9930    -0.7650 hc         1 4XQ       0.048200
     35 H15         -2.4620    -2.0350     0.9780 hc         1 4XQ       0.048200
     36 H16         -5.0040    -0.8020    -1.6280 h4         1 4XQ       0.164000
     37 H17         -7.0030     2.0170    -0.2970 h1         1 4XQ       0.066450
     38 H18         -6.9760     0.8200    -1.5840 h1         1 4XQ       0.066450
     39 H19         -9.5400     0.5540    -1.4180 hc         1 4XQ       0.038367
     40 H20        -10.2570     0.1730     0.1440 hc         1 4XQ       0.038367
     41 H21         -9.5670     1.7680    -0.1400 hc         1 4XQ       0.038367
     42 H22         -7.9920    -0.8670    -0.0350 hc         1 4XQ       0.058200
     43 H23         -8.0270     0.3340     1.2460 hc         1 4XQ       0.058200
     44 H24          9.4930     0.5100     1.4880 hc         1 4XQ       0.038367
     45 H25         10.2430     0.1270    -0.0580 hc         1 4XQ       0.038367
     46 H26          9.5530     1.7240     0.2130 hc         1 4XQ       0.038367
     47 C25         -6.9440     0.9470    -0.5020 c3         1 4XQ       0.079600
@<TRIPOS>BOND
     1     1     2 1   
     2     1    20 1   
     3     1    21 1   
     4     1    22 1   
     5     2     4 1   
     6     2    23 1   
     7     2    24 1   
     8     3     4 1   
     9     3     5 2   
    10     3    25 1   
    11     4    12 1   
    12     5     6 1   
    13     5     7 1   
    14     6     8 1   
    15     6    26 1   
    16     6    27 1   
    17     7    12 2   
    18     8     9 1   
    19     8    28 1   
    20     8    29 1   
    21     9    10 1   
    22     9    30 1   
    23     9    31 1   
    24    10    11 1   
    25    10    32 1   
    26    10    33 1   
    27    11    13 1   
    28    11    34 1   
    29    11    35 1   
    30    13    14 2   
    31    13    19 1   
    32    14    15 1   
    33    14    36 1   
    34    15    18 1   
    35    15    47 1   
    36    16    17 1   
    37    16    39 1   
    38    16    40 1   
    39    16    41 1   
    40    17    42 1   
    41    17    43 1   
    42    17    47 1   
    43    18    19 2   
    44    20    44 1   
    45    20    45 1   
    46    20    46 1   
    47    37    47 1   
    48    38    47 1   
@<TRIPOS>SUBSTRUCTURE
     1 4XQ         1 TEMP              0 ****  ****    0 ROOT
