@<TRIPOS>MOLECULE
4XR
   22    22     1     0     0
SMALL
bcc


@<TRIPOS>ATOM
      1 O11         -1.6420     1.8820    -0.0890 oh         1 4XR      -0.581800
      2 C11         -0.9320     0.7810    -0.5160 c6         1 4XR       0.358900
      3 O51          0.3020     0.7640     0.1910 os         1 4XR      -0.359900
      4 C21         -1.7320    -0.4860    -0.2510 c6         1 4XR       0.139500
      5 N21         -1.9950    -0.6160     1.1720 n8         1 4XR      -0.870800
      6 C31         -0.9050    -1.6700    -0.7470 c6         1 4XR      -0.023200
      7 C41          0.5340    -1.5220    -0.3610 c2         1 4XR      -0.277200
      8 C51          1.0360    -0.3730     0.0890 c2         1 4XR       0.122900
      9 C61          2.4430    -0.1750     0.5570 c3         1 4XR       0.196000
     10 N61          3.1380     0.8210    -0.2530 n8         1 4XR      -0.880800
     11 H1          -1.2700     2.6810    -0.4770 ho         1 4XR       0.421000
     12 H2          -0.7030     0.8370    -1.5910 h2         1 4XR       0.031700
     13 H3          -2.6460    -0.4230    -0.8600 h1         1 4XR       0.028700
     14 H4          -2.6220     0.1180     1.4760 hn         1 4XR       0.344300
     15 H5          -2.4930    -1.4820     1.3350 hn         1 4XR       0.344300
     16 H7          -1.3170    -2.5980    -0.3390 hc         1 4XR       0.048700
     17 H8          -1.0060    -1.7590    -1.8330 hc         1 4XR       0.048700
     18 H9           1.1910    -2.3790    -0.4310 ha         1 4XR       0.136000
     19 H10          2.4270     0.0700     1.6300 h1         1 4XR       0.045200
     20 H11          2.9690    -1.1260     0.4670 h1         1 4XR       0.045200
     21 H12          2.7750     1.7410    -0.0400 hn         1 4XR       0.340800
     22 H13          4.1100     0.8440     0.0260 hn         1 4XR       0.340800
@<TRIPOS>BOND
     1     1     2 1   
     2     1    11 1   
     3     2     3 1   
     4     2     4 1   
     5     2    12 1   
     6     3     8 1   
     7     4     5 1   
     8     4     6 1   
     9     4    13 1   
    10     5    14 1   
    11     5    15 1   
    12     6     7 1   
    13     6    16 1   
    14     6    17 1   
    15     7     8 2   
    16     7    18 1   
    17     8     9 1   
    18     9    10 1   
    19     9    19 1   
    20     9    20 1   
    21    10    21 1   
    22    10    22 1   
@<TRIPOS>SUBSTRUCTURE
     1 4XR         1 TEMP              0 ****  ****    0 ROOT
