@<TRIPOS>MOLECULE
4XR
   22    22     1     0     0
SMALL
No Charge or Current Charge


@<TRIPOS>ATOM
      1 O11         -1.7770     1.8810     0.0820 oh         1 4XR      -0.644000
      2 C11         -1.0460     0.8060    -0.5020 c6         1 4XR       0.405300
      3 O51          0.2620     0.8420     0.1020 os         1 4XR      -0.383100
      4 C21         -1.7670    -0.5770    -0.2740 c6         1 4XR       0.139500
      5 N21         -2.1660    -0.8310     1.1500 n8         1 4XR      -0.981200
      6 C31         -0.8440    -1.7010    -0.8100 c6         1 4XR      -0.023200
      7 C41          0.6010    -1.4690    -0.3870 c2         1 4XR      -0.327200
      8 C51          1.0550    -0.2840     0.0600 c2         1 4XR       0.122900
      9 C61          2.4560    -0.0380     0.6160 c3         1 4XR       0.196000
     10 N61          3.3840     0.5130    -0.4040 n8         1 4XR      -0.991200
     11 H1          -1.1020     2.5750     0.2300 ho         1 4XR       0.460000
     12 H2          -0.9380     0.9730    -1.5840 h2         1 4XR       0.031700
     13 H3          -2.6990    -0.5720    -0.8590 h1         1 4XR       0.028700
     14 H4          -2.4430     0.0750     1.5490 hn         1 4XR       0.399500
     15 H5          -3.0360    -1.3730     1.1580 hn         1 4XR       0.399500
     16 H7          -1.1930    -2.6820    -0.4580 hc         1 4XR       0.048700
     17 H8          -0.8960    -1.7300    -1.9080 hc         1 4XR       0.048700
     18 H9           1.2560    -2.3410    -0.3950 ha         1 4XR       0.186000
     19 H10          2.3970     0.6680     1.4570 h1         1 4XR       0.045200
     20 H11          2.8730    -0.9800     1.0000 h1         1 4XR       0.045200
     21 H12          3.0140     1.4180    -0.7190 hn         1 4XR       0.396000
     22 H13          4.2720     0.7560     0.0510 hn         1 4XR       0.396000
@<TRIPOS>BOND
     1     1     2 1   
     2     1    11 1   
     3     2     3 1   
     4     2     4 1   
     5     2    12 1   
     6     3     8 1   
     7     4     5 1   
     8     4     6 1   
     9     4    13 1   
    10     5    14 1   
    11     5    15 1   
    12     6     7 1   
    13     6    16 1   
    14     6    17 1   
    15     7     8 2   
    16     7    18 1   
    17     8     9 1   
    18     9    10 1   
    19     9    19 1   
    20     9    20 1   
    21    10    21 1   
    22    10    22 1   
@<TRIPOS>SUBSTRUCTURE
     1 4XR         1 TEMP              0 ****  ****    0 ROOT
