@<TRIPOS>MOLECULE
4XS
   20    21     1     0     0
SMALL
abcg2


@<TRIPOS>ATOM
      1 C2          -1.0410    -0.9840     0.1510 ca         1 4XS       0.214000
      2 C3           1.1920    -0.7000     0.0120 ca         1 4XS       0.202300
      3 N4           1.0760     0.6140    -0.1570 nb         1 4XS      -0.174000
      4 C7           3.6270    -0.6760    -0.8170 cx         1 4XS      -0.100900
      5 C           -0.1340     1.1080    -0.1710 ca         1 4XS       0.214000
      6 C1          -1.3090     0.3700    -0.0210 ca         1 4XS      -0.154300
      7 N            0.1590    -1.5180     0.1680 nb         1 4XS      -0.174000
      8 CL5         -2.3420    -2.1010     0.3650 cl         1 4XS      -0.148500
      9 C6           2.5380    -1.2890     0.0280 cx         1 4XS      -0.202000
     10 C8           3.6760    -0.5230     0.6580 cx         1 4XS      -0.100900
     11 H1           4.3150    -1.3620    -1.2940 hc         1 4XS       0.081700
     12 H2           3.3600     0.1890    -1.4090 hc         1 4XS       0.081700
     13 H3          -2.7670     1.7310     0.7500 hc         1 4XS       0.059367
     14 H4          -2.8270     1.5150    -0.9940 hc         1 4XS       0.059367
     15 H5          -3.4510     0.2600     0.0690 hc         1 4XS       0.059367
     16 H6           2.5460    -2.3650     0.1430 hc         1 4XS       0.107700
     17 H7           4.3960    -1.1030     1.2190 hc         1 4XS       0.081700
     18 H8           3.4430     0.4460     1.0790 hc         1 4XS       0.081700
     19 C9          -2.6620     0.9960    -0.0490 c3         1 4XS      -0.038800
     20 CL          -0.2530     2.8160    -0.3940 cl         1 4XS      -0.148500
@<TRIPOS>BOND
     1     1     6 ar  
     2     1     7 ar  
     3     1     8 1   
     4     2     3 ar  
     5     2     7 ar  
     6     2     9 1   
     7     3     5 ar  
     8     4     9 1   
     9     4    10 1   
    10     4    11 1   
    11     4    12 1   
    12     5     6 ar  
    13     5    20 1   
    14     6    19 1   
    15     9    10 1   
    16     9    16 1   
    17    10    17 1   
    18    10    18 1   
    19    13    19 1   
    20    14    19 1   
    21    15    19 1   
@<TRIPOS>SUBSTRUCTURE
     1 4XS         1 TEMP              0 ****  ****    0 ROOT
