@<TRIPOS>MOLECULE
4XS
   20    21     1     0     0
SMALL
No Charge or Current Charge


@<TRIPOS>ATOM
      1 C2          -0.8160    -0.5260     0.8570 ca         1 4XS       0.214000
      2 C3           1.1930    -0.6120    -0.2490 ca         1 4XS       0.202300
      3 N4           0.8330     0.2770    -1.1970 nb         1 4XS      -0.174000
      4 C7           3.8050    -0.3100    -0.4300 cx         1 4XS      -0.100900
      5 C           -0.4100     0.7870    -1.1090 ca         1 4XS       0.214000
      6 C1          -1.3060     0.4100    -0.0830 ca         1 4XS      -0.154300
      7 N            0.4270    -1.0390     0.7740 nb         1 4XS      -0.174000
      8 Cl5         -1.7820    -1.0830     2.2210 cl         1 4XS      -0.148500
      9 C6           2.5750    -1.1900    -0.3500 cx         1 4XS      -0.202000
     10 C8           3.5500    -1.1360     0.8080 cx         1 4XS      -0.100900
     11 H1           4.6110    -0.6220    -1.0910 hc         1 4XS       0.081700
     12 H2           3.6730     0.7670    -0.3530 hc         1 4XS       0.081700
     13 H3          -3.4250     0.2920     0.4700 hc         1 4XS       0.059367
     14 H4          -2.7190     1.9080     0.6250 hc         1 4XS       0.059367
     15 H5          -3.1290     1.2500    -0.9660 hc         1 4XS       0.059367
     16 H6           2.5870    -2.0970    -0.9520 hc         1 4XS       0.107700
     17 H7           4.1840    -2.0030     0.9790 hc         1 4XS       0.081700
     18 H8           3.2480    -0.6100     1.7110 hc         1 4XS       0.081700
     19 C9          -2.7180     0.9960     0.0170 c3         1 4XS      -0.038800
     20 Cl          -0.8390     1.9660    -2.3460 cl         1 4XS      -0.148500
@<TRIPOS>BOND
     1     1     6 ar  
     2     1     7 ar  
     3     1     8 1   
     4     2     3 ar  
     5     2     7 ar  
     6     2     9 1   
     7     3     5 ar  
     8     4     9 1   
     9     4    10 1   
    10     4    11 1   
    11     4    12 1   
    12     5     6 ar  
    13     5    20 1   
    14     6    19 1   
    15     9    10 1   
    16     9    16 1   
    17    10    17 1   
    18    10    18 1   
    19    13    19 1   
    20    14    19 1   
    21    15    19 1   
@<TRIPOS>SUBSTRUCTURE
     1 4XS         1 TEMP              0 ****  ****    0 ROOT
