@<TRIPOS>MOLECULE
4XW
   57    57     1     0     0
SMALL
No Charge or Current Charge


@<TRIPOS>ATOM
      1 C1          -5.3850     0.7730     0.1450 c6         1 4XW      -0.010800
      2 C2          -5.6900    -0.0160     1.4220 c2         1 4XW      -0.216200
      3 C3          -5.2930    -1.2840     1.6440 c2         1 4XW      -0.215200
      4 C4          -4.4700    -2.1080     0.6590 c6         1 4XW      -0.041200
      5 C5          -4.4330    -1.4680    -0.7520 c6         1 4XW      -0.056700
      6 C6          -4.1500     0.1010    -0.6300 c6         1 4XW      -0.034700
      7 C7          -2.7810     0.5000     0.0470 c3         1 4XW      -0.073400
      8 C8          -1.4700    -0.0270    -0.5900 c3         1 4XW      -0.072400
      9 C9          -0.1670     0.7000    -0.1420 c3         1 4XW      -0.060700
     10 C10          1.0810    -0.1520    -0.5200 c3         1 4XW      -0.074400
     11 C11          2.4300     0.3720     0.0310 c3         1 4XW      -0.073400
     12 C12          3.6080    -0.5920    -0.2530 c3         1 4XW      -0.076400
     13 C13          5.0130    -0.0600     0.1570 c3         1 4XW      -0.040700
     14 C14          6.1310    -1.0230    -0.3510 c3         1 4XW      -0.200400
     15 C15          7.5400    -0.4120    -0.2000 c          1 4XW       0.715000
     16 C16         -5.2040     2.2970     0.5480 c3         1 4XW      -0.080100
     17 C17         -6.6800     0.7420    -0.7320 c3         1 4XW      -0.080100
     18 C18         -3.5070    -2.2480    -1.7310 c3         1 4XW      -0.083100
     19 C19         -0.0710     2.1440    -0.7060 c3         1 4XW      -0.084100
     20 C20          5.1180     0.2110     1.6810 c3         1 4XW      -0.073100
     21 O21          8.1890    -0.6840     0.7980 o          1 4XW      -0.743000
     22 O22          7.9430     0.3280    -1.0850 o          1 4XW      -0.743000
     23 H1          -6.2800     0.5050     2.1790 ha         1 4XW       0.163000
     24 H2          -5.5540    -1.7830     2.5790 ha         1 4XW       0.167000
     25 H3          -3.4510    -2.2240     1.0530 hc         1 4XW       0.047200
     26 H4          -4.8900    -3.1210     0.5900 hc         1 4XW       0.047200
     27 H5          -5.4300    -1.6750    -1.1960 hc         1 4XW       0.038700
     28 H6          -4.1120     0.5250    -1.6430 hc         1 4XW       0.042700
     29 H7          -2.7170     1.5910     0.0430 hc         1 4XW       0.039700
     30 H8          -2.7850     0.2150     1.1060 hc         1 4XW       0.039700
     31 H9          -1.3690    -1.0780    -0.3060 hc         1 4XW       0.035700
     32 H10         -1.5510     0.0130    -1.6830 hc         1 4XW       0.035700
     33 H11         -0.1920     0.7710     0.9530 hc         1 4XW       0.042700
     34 H12          0.9380    -1.1720    -0.1420 hc         1 4XW       0.032200
     35 H13          1.1460    -0.2320    -1.6120 hc         1 4XW       0.032200
     36 H14          2.6610     1.3450    -0.4170 hc         1 4XW       0.035200
     37 H15          2.3290     0.5250     1.1120 hc         1 4XW       0.035200
     38 H16          3.4210    -1.5460     0.2550 hc         1 4XW       0.024700
     39 H17          3.6130    -0.8090    -1.3290 hc         1 4XW       0.024700
     40 H18          5.1560     0.9000    -0.3550 hc         1 4XW       0.058700
     41 H19          6.0430    -1.9450     0.2360 hc         1 4XW       0.015700
     42 H20          5.9220    -1.1670    -1.4190 hc         1 4XW       0.015700
     43 H21         -4.4260     2.4250     1.3090 hc         1 4XW       0.032033
     44 H22         -4.9290     2.9070    -0.3210 hc         1 4XW       0.032033
     45 H23         -6.1240     2.7200     0.9710 hc         1 4XW       0.032033
     46 H24         -7.5090     1.2710    -0.2460 hc         1 4XW       0.032033
     47 H25         -6.5140     1.2210    -1.7050 hc         1 4XW       0.032033
     48 H26         -7.0420    -0.2740    -0.9190 hc         1 4XW       0.032033
     49 H27         -3.9930    -3.1750    -2.0600 hc         1 4XW       0.033033
     50 H28         -3.2890    -1.6610    -2.6310 hc         1 4XW       0.033033
     51 H29         -2.5600    -2.5510    -1.2750 hc         1 4XW       0.033033
     52 H30         -0.9360     2.7520    -0.4210 hc         1 4XW       0.029367
     53 H31          0.8130     2.6630    -0.3200 hc         1 4XW       0.029367
     54 H32         -0.0100     2.1300    -1.8010 hc         1 4XW       0.029367
     55 H33          6.1040     0.6100     1.9450 hc         1 4XW       0.021033
     56 H34          4.3810     0.9530     2.0040 hc         1 4XW       0.021033
     57 H35          4.9540    -0.7100     2.2530 hc         1 4XW       0.021033
@<TRIPOS>BOND
     1     1     2 1   
     2     1     6 1   
     3     1    16 1   
     4     1    17 1   
     5     2     3 2   
     6     2    23 1   
     7     3     4 1   
     8     3    24 1   
     9     4     5 1   
    10     4    25 1   
    11     4    26 1   
    12     5     6 1   
    13     5    18 1   
    14     5    27 1   
    15     6     7 1   
    16     6    28 1   
    17     7     8 1   
    18     7    29 1   
    19     7    30 1   
    20     8     9 1   
    21     8    31 1   
    22     8    32 1   
    23     9    10 1   
    24     9    19 1   
    25     9    33 1   
    26    10    11 1   
    27    10    34 1   
    28    10    35 1   
    29    11    12 1   
    30    11    36 1   
    31    11    37 1   
    32    12    13 1   
    33    12    38 1   
    34    12    39 1   
    35    13    14 1   
    36    13    20 1   
    37    13    40 1   
    38    14    15 1   
    39    14    41 1   
    40    14    42 1   
    41    15    21 1   
    42    15    22 1   
    43    16    43 1   
    44    16    44 1   
    45    16    45 1   
    46    17    46 1   
    47    17    47 1   
    48    17    48 1   
    49    18    49 1   
    50    18    50 1   
    51    18    51 1   
    52    19    52 1   
    53    19    53 1   
    54    19    54 1   
    55    20    55 1   
    56    20    56 1   
    57    20    57 1   
@<TRIPOS>SUBSTRUCTURE
     1 4XW         1 TEMP              0 ****  ****    0 ROOT
