@<TRIPOS>MOLECULE
4XW
   57    57     1     0     0
SMALL
abcg2


@<TRIPOS>ATOM
      1 C1          -5.3100     0.7420     0.0340 c6         1 4XW      -0.010800
      2 C2          -5.6810     0.0690     1.3340 c2         1 4XW      -0.216200
      3 C3          -5.2360    -1.1210     1.7300 c2         1 4XW      -0.215200
      4 C4          -4.3500    -1.9800     0.8820 c6         1 4XW      -0.041200
      5 C5          -4.3390    -1.4920    -0.5620 c6         1 4XW      -0.056700
      6 C6          -4.0800     0.0270    -0.6020 c6         1 4XW      -0.034700
      7 C7          -2.7600     0.4780     0.0420 c3         1 4XW      -0.073400
      8 C8          -1.4700    -0.0380    -0.5920 c3         1 4XW      -0.072400
      9 C9          -0.2090     0.6870    -0.1040 c3         1 4XW      -0.060700
     10 C10          1.0380    -0.0760    -0.5560 c3         1 4XW      -0.074400
     11 C11          2.3540     0.4210     0.0340 c3         1 4XW      -0.073400
     12 C12          3.5320    -0.4590    -0.3680 c3         1 4XW      -0.076400
     13 C13          4.9000     0.0020     0.1410 c3         1 4XW      -0.040700
     14 C14          5.9980    -0.8830    -0.4430 c3         1 4XW      -0.200400
     15 C15          7.4440    -0.4320    -0.1800 c          1 4XW       0.715000
     16 C16         -5.0500     2.2260     0.3270 c3         1 4XW      -0.080100
     17 C17         -6.5090     0.6980    -0.9290 c3         1 4XW      -0.080100
     18 C18         -3.4530    -2.3570    -1.4550 c3         1 4XW      -0.083100
     19 C19         -0.1630     2.1410    -0.5660 c3         1 4XW      -0.084100
     20 C20          4.9580     0.0130     1.6650 c3         1 4XW      -0.073100
     21 O21          8.3110    -1.3310    -0.1330 o          1 4XW      -0.743000
     22 O22          7.6540     0.7940    -0.0800 o          1 4XW      -0.743000
     23 H1          -6.3530     0.6250     1.9840 ha         1 4XW       0.163000
     24 H2          -5.5360    -1.5070     2.7000 ha         1 4XW       0.167000
     25 H3          -3.3310    -1.9990     1.2900 hc         1 4XW       0.047200
     26 H4          -4.6960    -3.0180     0.9230 hc         1 4XW       0.047200
     27 H5          -5.3570    -1.6370    -0.9380 hc         1 4XW       0.038700
     28 H6          -4.0380     0.3350    -1.6570 hc         1 4XW       0.042700
     29 H7          -2.7310     1.5670    -0.0080 hc         1 4XW       0.039700
     30 H8          -2.7520     0.2350     1.1100 hc         1 4XW       0.039700
     31 H9          -1.3420    -1.1000    -0.3760 hc         1 4XW       0.035700
     32 H10         -1.5310     0.0440    -1.6840 hc         1 4XW       0.035700
     33 H11         -0.2250     0.6750     0.9950 hc         1 4XW       0.042700
     34 H12          0.9180    -1.1320    -0.2900 hc         1 4XW       0.032200
     35 H13          1.0950    -0.0480    -1.6520 hc         1 4XW       0.032200
     36 H14          2.5520     1.4490    -0.2840 hc         1 4XW       0.035200
     37 H15          2.2590     0.4510     1.1240 hc         1 4XW       0.035200
     38 H16          3.3510    -1.4860    -0.0250 hc         1 4XW       0.024700
     39 H17          3.5670    -0.5140    -1.4630 hc         1 4XW       0.024700
     40 H18          5.0690     1.0240    -0.2150 hc         1 4XW       0.058700
     41 H19          5.8640    -1.9130    -0.0950 hc         1 4XW       0.015700
     42 H20          5.8710    -0.9260    -1.5340 hc         1 4XW       0.015700
     43 H21         -4.3170     2.3790     1.1190 hc         1 4XW       0.032033
     44 H22         -4.6980     2.7480    -0.5660 hc         1 4XW       0.032033
     45 H23         -5.9750     2.7110     0.6460 hc         1 4XW       0.032033
     46 H24         -7.3880     1.1610    -0.4750 hc         1 4XW       0.032033
     47 H25         -6.2790     1.2490    -1.8440 hc         1 4XW       0.032033
     48 H26         -6.7890    -0.3170    -1.2110 hc         1 4XW       0.032033
     49 H27         -3.9490    -3.3070    -1.6660 hc         1 4XW       0.033033
     50 H28         -3.2520    -1.8730    -2.4120 hc         1 4XW       0.033033
     51 H29         -2.4960    -2.5980    -0.9980 hc         1 4XW       0.033033
     52 H30         -1.0490     2.7000    -0.2640 hc         1 4XW       0.029367
     53 H31          0.6980     2.6690    -0.1550 hc         1 4XW       0.029367
     54 H32         -0.0950     2.1970    -1.6560 hc         1 4XW       0.029367
     55 H33          5.9460     0.3100     2.0180 hc         1 4XW       0.021033
     56 H34          4.2380     0.7090     2.0990 hc         1 4XW       0.021033
     57 H35          4.7410    -0.9800     2.0700 hc         1 4XW       0.021033
@<TRIPOS>BOND
     1     1     2 1   
     2     1     6 1   
     3     1    16 1   
     4     1    17 1   
     5     2     3 2   
     6     2    23 1   
     7     3     4 1   
     8     3    24 1   
     9     4     5 1   
    10     4    25 1   
    11     4    26 1   
    12     5     6 1   
    13     5    18 1   
    14     5    27 1   
    15     6     7 1   
    16     6    28 1   
    17     7     8 1   
    18     7    29 1   
    19     7    30 1   
    20     8     9 1   
    21     8    31 1   
    22     8    32 1   
    23     9    10 1   
    24     9    19 1   
    25     9    33 1   
    26    10    11 1   
    27    10    34 1   
    28    10    35 1   
    29    11    12 1   
    30    11    36 1   
    31    11    37 1   
    32    12    13 1   
    33    12    38 1   
    34    12    39 1   
    35    13    14 1   
    36    13    20 1   
    37    13    40 1   
    38    14    15 1   
    39    14    41 1   
    40    14    42 1   
    41    15    21 1   
    42    15    22 1   
    43    16    43 1   
    44    16    44 1   
    45    16    45 1   
    46    17    46 1   
    47    17    47 1   
    48    17    48 1   
    49    18    49 1   
    50    18    50 1   
    51    18    51 1   
    52    19    52 1   
    53    19    53 1   
    54    19    54 1   
    55    20    55 1   
    56    20    56 1   
    57    20    57 1   
@<TRIPOS>SUBSTRUCTURE
     1 4XW         1 TEMP              0 ****  ****    0 ROOT
