@<TRIPOS>MOLECULE
4XX
   14    14     1     0     0
SMALL
No Charge or Current Charge


@<TRIPOS>ATOM
      1 CAA          2.4940     0.1600    -0.0140 c3         1 4XX      -0.040900
      2 CAG          1.0140    -0.1460    -0.0050 c2         1 4XX       0.106900
      3 OAE          0.6990    -1.4760     0.0660 os         1 4XX      -0.313100
      4 CAD         -0.7710    -1.5210     0.0620 c5         1 4XX       0.027600
      5 CAF         -1.2890    -0.0640    -0.0140 c          1 4XX       0.530300
      6 OAB         -2.4290     0.3860    -0.0390 o          1 4XX      -0.519100
      7 CAH         -0.0220     0.6970    -0.0500 ce         1 4XX      -0.142100
      8 OAC         -0.0070     2.0680    -0.1190 oh         1 4XX      -0.509100
      9 H1           3.0580    -0.6200    -0.5390 hc         1 4XX       0.064367
     10 H2           2.6980     1.1130    -0.5160 hc         1 4XX       0.064367
     11 H3           2.8840     0.2290     1.0080 hc         1 4XX       0.064367
     12 H4          -1.1270    -2.0790    -0.8130 h1         1 4XX       0.095200
     13 H5          -1.1340    -1.9890     0.9850 h1         1 4XX       0.095200
     14 H6          -0.9450     2.3730    -0.1360 ho         1 4XX       0.475000
@<TRIPOS>BOND
     1     1     2 1   
     2     1     9 1   
     3     1    10 1   
     4     1    11 1   
     5     2     3 1   
     6     2     7 2   
     7     3     4 1   
     8     4     5 1   
     9     4    12 1   
    10     4    13 1   
    11     5     6 2   
    12     5     7 1   
    13     7     8 1   
    14     8    14 1   
@<TRIPOS>SUBSTRUCTURE
     1 4XX         1 TEMP              0 ****  ****    0 ROOT
