@<TRIPOS>MOLECULE
4XX
   14    14     1     0     0
SMALL
abcg2


@<TRIPOS>ATOM
      1 CAA          2.4560     0.1630    -0.0070 c3         1 4XX      -0.040900
      2 CAG          1.0090    -0.1300     0.0140 c2         1 4XX       0.106900
      3 OAE          0.6550    -1.4240     0.1250 os         1 4XX      -0.313100
      4 CAD         -0.7660    -1.5000     0.1110 c5         1 4XX       0.027600
      5 CAF         -1.2490    -0.0730    -0.0030 c          1 4XX       0.530300
      6 OAB         -2.4060     0.3070    -0.0500 o          1 4XX      -0.519100
      7 CAH         -0.0460     0.7140    -0.0530 ce         1 4XX      -0.142100
      8 OAC          0.0180     2.0580    -0.1400 oh         1 4XX      -0.509100
      9 H1           2.9500    -0.4060    -0.7970 hc         1 4XX       0.064367
     10 H2           2.6370     1.2210    -0.1780 hc         1 4XX       0.064367
     11 H3           2.9220    -0.1190     0.9390 hc         1 4XX       0.064367
     12 H4          -1.0890    -2.1060    -0.7390 h1         1 4XX       0.095200
     13 H5          -1.1140    -1.9730     1.0320 h1         1 4XX       0.095200
     14 H6          -0.8530     2.3990    -0.3790 ho         1 4XX       0.475000
@<TRIPOS>BOND
     1     1     2 1   
     2     1     9 1   
     3     1    10 1   
     4     1    11 1   
     5     2     3 1   
     6     2     7 2   
     7     3     4 1   
     8     4     5 1   
     9     4    12 1   
    10     4    13 1   
    11     5     6 2   
    12     5     7 1   
    13     7     8 1   
    14     8    14 1   
@<TRIPOS>SUBSTRUCTURE
     1 4XX         1 TEMP              0 ****  ****    0 ROOT
