@<TRIPOS>MOLECULE
4Y0
   41    43     1     0     0
SMALL
abcg2


@<TRIPOS>ATOM
      1 N1          -3.2840     1.6300     0.7980 na         1 4Y0       0.003800
      2 C2          -2.3270    -0.1500    -0.0200 cc         1 4Y0      -0.208000
      3 C3          -1.3920     0.8090     0.4070 cc         1 4Y0       0.381900
      4 C4          -3.5530     0.4290     0.2550 cd         1 4Y0      -0.083000
      5 N5          -1.9820     1.8800     0.9050 nd         1 4Y0      -0.577800
      6 N6          -0.0050     0.8000     0.3620 ns         1 4Y0      -0.470400
      7 C7           0.7750    -0.2440    -0.0110 c          1 4Y0       0.629700
      8 C9           2.2370     0.0260    -0.0420 ca         1 4Y0      -0.153600
      9 C10          3.0990    -1.0740     0.0630 ca         1 4Y0      -0.121000
     10 C11          4.4680    -0.9070     0.0170 ca         1 4Y0       0.101100
     11 C12          5.0080     0.3870    -0.1640 ca         1 4Y0       0.138100
     12 C13         -4.9070    -0.0670     0.0290 ca         1 4Y0      -0.024000
     13 C15          2.7720     1.2900    -0.2200 ca         1 4Y0      -0.077000
     14 C16          4.1510     1.4690    -0.2830 ca         1 4Y0      -0.188000
     15 O17          5.3700    -1.8970     0.1260 os         1 4Y0      -0.322100
     16 O18          6.3440     0.4540    -0.2110 os         1 4Y0      -0.316100
     17 C19         -5.9890     0.8070    -0.0910 ca         1 4Y0      -0.095000
     18 C20         -5.1350    -1.4400    -0.0790 ca         1 4Y0      -0.095000
     19 C21          4.8940    -3.2110     0.3390 c3         1 4Y0       0.143900
     20 C22         -6.4140    -1.9260    -0.3000 ca         1 4Y0      -0.108000
     21 C23         -7.2690     0.3170    -0.3040 ca         1 4Y0      -0.108000
     22 O2           0.3170    -1.3380    -0.3010 o          1 4Y0      -0.587100
     23 C            6.9480     1.7210    -0.3950 c3         1 4Y0       0.144900
     24 C24         -7.4870    -1.0500    -0.4110 ca         1 4Y0      -0.102000
     25 H1          -3.9420     2.3000     1.1610 hn         1 4Y0       0.373000
     26 H2          -2.1470    -1.1040    -0.4800 ha         1 4Y0       0.170000
     27 H6           0.4350     1.6390     0.7090 hn         1 4Y0       0.334500
     28 H10          2.6730    -2.0590     0.1910 ha         1 4Y0       0.142000
     29 H15          2.1430     2.1620    -0.3480 ha         1 4Y0       0.116000
     30 H16          4.5380     2.4670    -0.4360 ha         1 4Y0       0.123000
     31 H19         -5.8400     1.8790    -0.0380 ha         1 4Y0       0.116000
     32 H20         -4.3110    -2.1340     0.0220 ha         1 4Y0       0.116000
     33 H211         4.3110    -3.2860     1.2610 h1         1 4Y0       0.043033
     34 H212         4.2820    -3.5640    -0.4950 h1         1 4Y0       0.043033
     35 H213         5.7720    -3.8460     0.4250 h1         1 4Y0       0.043033
     36 HC1          8.0210     1.5490    -0.4150 h1         1 4Y0       0.042700
     37 HC2          6.6460     2.1810    -1.3390 h1         1 4Y0       0.042700
     38 HC3          6.7150     2.4060     0.4230 h1         1 4Y0       0.042700
     39 H23         -8.0960     1.0090    -0.3970 ha         1 4Y0       0.116000
     40 H22         -6.5740    -2.9930    -0.3790 ha         1 4Y0       0.116000
     41 H24         -8.4850    -1.4300    -0.5820 ha         1 4Y0       0.115000
@<TRIPOS>BOND
     1     1     4 1   
     2     1     5 1   
     3     1    25 1   
     4     2     3 1   
     5     2     4 2   
     6     2    26 1   
     7     3     5 2   
     8     3     6 1   
     9     4    12 1   
    10     6     7 1   
    11     6    27 1   
    12     7     8 1   
    13     7    22 2   
    14     8     9 ar  
    15     8    13 ar  
    16     9    10 ar  
    17     9    28 1   
    18    10    11 ar  
    19    10    15 1   
    20    11    14 ar  
    21    11    16 1   
    22    12    17 ar  
    23    12    18 ar  
    24    13    14 ar  
    25    13    29 1   
    26    14    30 1   
    27    15    19 1   
    28    16    23 1   
    29    17    21 ar  
    30    17    31 1   
    31    18    20 ar  
    32    18    32 1   
    33    19    33 1   
    34    19    34 1   
    35    19    35 1   
    36    20    24 ar  
    37    20    40 1   
    38    21    24 ar  
    39    21    39 1   
    40    23    36 1   
    41    23    37 1   
    42    23    38 1   
    43    24    41 1   
@<TRIPOS>SUBSTRUCTURE
     1 4Y0         1 TEMP              0 ****  ****    0 ROOT
