@<TRIPOS>MOLECULE
4Y0
   41    43     1     0     0
SMALL
No Charge or Current Charge


@<TRIPOS>ATOM
      1 N1          -3.3250     1.9720     0.0050 na         1 4Y0       0.003800
      2 C2          -2.3840     0.0060    -0.0020 cc         1 4Y0      -0.208000
      3 C3          -1.4270     1.0330    -0.0010 cc         1 4Y0       0.381900
      4 C4          -3.6130     0.5990     0.0010 cd         1 4Y0      -0.083000
      5 N5          -1.9520     2.2350     0.0030 nd         1 4Y0      -0.577800
      6 N6          -0.0610     0.9060    -0.0040 ns         1 4Y0      -0.470400
      7 C7           0.7210    -0.2270    -0.0080 c          1 4Y0       0.629700
      8 C9           2.2250    -0.0020    -0.0090 ca         1 4Y0      -0.153600
      9 C10          3.0940    -1.1200    -0.0140 ca         1 4Y0      -0.121000
     10 C11          4.4990    -0.9550    -0.0160 ca         1 4Y0       0.101100
     11 C12          5.0500     0.3460    -0.0120 ca         1 4Y0       0.138100
     12 C13         -4.9470    -0.0330     0.0020 ca         1 4Y0      -0.024000
     13 C15          2.7960     1.2940    -0.0060 ca         1 4Y0      -0.077000
     14 C16          4.1900     1.4650    -0.0070 ca         1 4Y0      -0.188000
     15 O17          5.3630    -2.0400    -0.0210 os         1 4Y0      -0.322100
     16 O18          6.4290     0.4830    -0.0130 os         1 4Y0      -0.316100
     17 C19         -6.1170     0.7580     0.0060 ca         1 4Y0      -0.095000
     18 C20         -5.0800    -1.4390    -0.0010 ca         1 4Y0      -0.095000
     19 C21          4.9000    -3.4020    -0.0250 c3         1 4Y0       0.143900
     20 C22         -6.3510    -2.0390    -0.0010 ca         1 4Y0      -0.108000
     21 C23         -7.3880     0.1570     0.0070 ca         1 4Y0      -0.108000
     22 O2           0.2450    -1.3530    -0.0110 o          1 4Y0      -0.587100
     23 C            7.0780     1.7670    -0.0100 c3         1 4Y0       0.144900
     24 C24         -7.5070    -1.2410     0.0030 ca         1 4Y0      -0.102000
     25 H1          -4.0090     2.7270     0.0080 hn         1 4Y0       0.373000
     26 H2          -2.1740    -1.0540    -0.0050 ha         1 4Y0       0.170000
     27 H6           0.4550     1.7700    -0.0020 hn         1 4Y0       0.334500
     28 H10          2.6620    -2.1160    -0.0170 ha         1 4Y0       0.142000
     29 H15          2.1760     2.1870    -0.0020 ha         1 4Y0       0.116000
     30 H16          4.5840     2.4770    -0.0040 ha         1 4Y0       0.123000
     31 H19         -6.0520     1.8430     0.0090 ha         1 4Y0       0.116000
     32 H20         -4.2010    -2.0770    -0.0050 ha         1 4Y0       0.116000
     33 H211         4.2970    -3.6130     0.8680 h1         1 4Y0       0.043033
     34 H212         4.2940    -3.6060    -0.9170 h1         1 4Y0       0.043033
     35 H213         5.7520    -4.0930    -0.0280 h1         1 4Y0       0.043033
     36 HC1          8.1680     1.6420    -0.0120 h1         1 4Y0       0.042700
     37 HC2          6.8010     2.3470    -0.9000 h1         1 4Y0       0.042700
     38 HC3          6.8040     2.3410     0.8850 h1         1 4Y0       0.042700
     39 H23         -8.2820     0.7770     0.0100 ha         1 4Y0       0.116000
     40 H22         -6.4400    -3.1230    -0.0040 ha         1 4Y0       0.116000
     41 H24         -8.4900    -1.7060     0.0040 ha         1 4Y0       0.115000
@<TRIPOS>BOND
     1     1     4 1   
     2     1     5 1   
     3     1    25 1   
     4     2     3 1   
     5     2     4 2   
     6     2    26 1   
     7     3     5 2   
     8     3     6 1   
     9     4    12 1   
    10     6     7 1   
    11     6    27 1   
    12     7     8 1   
    13     7    22 2   
    14     8     9 ar  
    15     8    13 ar  
    16     9    10 ar  
    17     9    28 1   
    18    10    11 ar  
    19    10    15 1   
    20    11    14 ar  
    21    11    16 1   
    22    12    17 ar  
    23    12    18 ar  
    24    13    14 ar  
    25    13    29 1   
    26    14    30 1   
    27    15    19 1   
    28    16    23 1   
    29    17    21 ar  
    30    17    31 1   
    31    18    20 ar  
    32    18    32 1   
    33    19    33 1   
    34    19    34 1   
    35    19    35 1   
    36    20    24 ar  
    37    20    40 1   
    38    21    24 ar  
    39    21    39 1   
    40    23    36 1   
    41    23    37 1   
    42    23    38 1   
    43    24    41 1   
@<TRIPOS>SUBSTRUCTURE
     1 4Y0         1 TEMP              0 ****  ****    0 ROOT
