@<TRIPOS>MOLECULE
4Y5
   42    45     1     0     0
SMALL
abcg2


@<TRIPOS>ATOM
      1 C1         -38.9760    25.7670    28.8290 ca         1 4Y5      -0.059000
      2 C2         -38.9810    24.4590    29.2910 ca         1 4Y5      -0.133000
      3 C3         -38.2900    24.2140    30.4740 ca         1 4Y5      -0.041000
      4 C4         -37.6200    25.2210    31.1930 ca         1 4Y5      -0.245900
      5 C5         -37.6260    26.5120    30.6700 ca         1 4Y5       0.257000
      6 C6         -37.0320    24.5600    32.3340 cc         1 4Y5       0.512500
      7 C11        -37.3160    18.5960    33.5470 ca         1 4Y5      -0.095000
      8 C12        -36.4460    19.0760    32.5800 ca         1 4Y5      -0.077000
      9 C16        -36.5810    26.2340    34.1380 ca         1 4Y5       0.169000
     10 C17        -35.8080    26.7710    35.1450 ca         1 4Y5      -0.128000
     11 C18        -34.5840    26.1810    35.4570 ca         1 4Y5      -0.085600
     12 C21        -33.7120    26.7640    36.5720 c          1 4Y5       0.704600
     13 O2         -34.1290    27.8110    37.1260 o          1 4Y5      -0.711000
     14 O1         -32.6530    26.1450    36.8400 o          1 4Y5      -0.711000
     15 C19        -34.1780    25.0520    34.7430 ca         1 4Y5      -0.112000
     16 C20        -34.9690    24.5300    33.7310 ca         1 4Y5      -0.080000
     17 C15        -36.1940    25.1190    33.4000 ca         1 4Y5      -0.209900
     18 F          -36.9530    27.4930    31.3030 f          1 4Y5      -0.153000
     19 C          -38.3010    26.7950    29.5040 ca         1 4Y5      -0.196000
     20 N          -37.3070    23.2800    32.3160 nd         1 4Y5      -0.465300
     21 N1         -38.0700    23.0430    31.1950 n          1 4Y5       0.042600
     22 C8         -38.1110    20.7010    31.8890 ca         1 4Y5      -0.053600
     23 C13        -36.8520    20.1210    31.7610 ca         1 4Y5       0.151000
     24 CL         -35.7510    20.7190    30.5480 cl         1 4Y5      -0.178000
     25 C10        -38.5780    19.1550    33.6930 ca         1 4Y5      -0.068000
     26 C9         -38.9750    20.2010    32.8690 ca         1 4Y5      -0.142300
     27 C14        -40.3630    20.7690    33.0320 c3         1 4Y5       0.343300
     28 F1         -41.2330    20.2430    32.1370 f          1 4Y5      -0.106667
     29 F2         -40.3960    22.1090    32.8540 f          1 4Y5      -0.106667
     30 F3         -40.8720    20.5270    34.2540 f          1 4Y5      -0.106667
     31 H1         -39.5010    26.0050    27.9130 ha         1 4Y5       0.112000
     32 H2         -39.4900    23.6720    28.7600 ha         1 4Y5       0.144000
     33 H3         -37.0070    17.7840    34.1910 ha         1 4Y5       0.125000
     34 H4         -35.4600    18.6500    32.4570 ha         1 4Y5       0.136000
     35 H5         -36.1520    27.6360    35.6940 ha         1 4Y5       0.151000
     36 H7         -33.2300    24.5950    34.9870 ha         1 4Y5       0.138000
     37 H8         -34.6440    23.6630    33.1710 ha         1 4Y5       0.102000
     38 H9         -38.2970    27.8050    29.1170 ha         1 4Y5       0.130000
     39 H10        -39.2500    18.7820    34.4520 ha         1 4Y5       0.135000
     40 C7         -38.5380    21.7730    30.9240 c          1 4Y5       0.651700
     41 O          -39.2420    21.5370    29.9660 o          1 4Y5      -0.538100
     42 F4         -37.7910    26.7930    33.8830 f          1 4Y5      -0.201000
@<TRIPOS>BOND
     1     1     2 ar  
     2     1    19 ar  
     3     1    31 1   
     4     2     3 ar  
     5     2    32 1   
     6     3     4 ar  
     7     3    21 1   
     8     4     5 ar  
     9     4     6 1   
    10     5    18 1   
    11     5    19 ar  
    12     6    17 1   
    13     6    20 2   
    14     7     8 ar  
    15     7    25 ar  
    16     7    33 1   
    17     8    23 ar  
    18     8    34 1   
    19     9    10 ar  
    20     9    17 ar  
    21     9    42 1   
    22    10    11 ar  
    23    10    35 1   
    24    11    12 1   
    25    11    15 ar  
    26    12    13 1   
    27    12    14 1   
    28    15    16 ar  
    29    15    36 1   
    30    16    17 ar  
    31    16    37 1   
    32    19    38 1   
    33    20    21 1   
    34    21    40 1   
    35    22    23 ar  
    36    22    26 ar  
    37    22    40 1   
    38    23    24 1   
    39    25    26 ar  
    40    25    39 1   
    41    26    27 1   
    42    27    28 1   
    43    27    29 1   
    44    27    30 1   
    45    40    41 2   
@<TRIPOS>SUBSTRUCTURE
     1 4Y5         1 TEMP              0 ****  ****    0 ROOT
