@<TRIPOS>MOLECULE
4Y5
   42    45     1     0     0
SMALL
No Charge or Current Charge


@<TRIPOS>ATOM
      1 C1         -38.8880    25.8170    28.9070 ca         1 4Y5      -0.059000
      2 C2         -38.9450    24.5040    29.4210 ca         1 4Y5      -0.133000
      3 C3         -38.2490    24.2210    30.6120 ca         1 4Y5      -0.041000
      4 C4         -37.5420    25.1970    31.2620 ca         1 4Y5      -0.245900
      5 C5         -37.4390    26.5000    30.7550 ca         1 4Y5       0.257000
      6 C6         -36.9520    24.5640    32.4080 cc         1 4Y5       0.512500
      7 C11        -37.4220    18.3940    33.4650 ca         1 4Y5      -0.095000
      8 C12        -36.5260    18.9820    32.5620 ca         1 4Y5      -0.077000
      9 C16        -36.5960    26.3020    34.1570 ca         1 4Y5       0.169000
     10 C17        -35.7980    26.9070    35.1400 ca         1 4Y5      -0.128000
     11 C18        -34.4940    26.4280    35.4110 ca         1 4Y5      -0.085600
     12 C21        -33.6260    27.0840    36.4770 c          1 4Y5       0.704600
     13 O2         -34.0770    28.0410    37.0920 o          1 4Y5      -0.711000
     14 O1         -32.5070    26.6330    36.6810 o          1 4Y5      -0.711000
     15 C19        -34.0260    25.3150    34.6740 ca         1 4Y5      -0.112000
     16 C20        -34.8290    24.7100    33.6920 ca         1 4Y5      -0.080000
     17 C15        -36.1120    25.2150    33.4080 ca         1 4Y5      -0.209900
     18 F          -36.6780    27.4380    31.3580 f          1 4Y5      -0.153000
     19 C          -38.1300    26.8100    29.5690 ca         1 4Y5      -0.196000
     20 N          -37.2350    23.2620    32.4460 nd         1 4Y5      -0.465300
     21 N1         -38.0740    22.9930    31.3330 n          1 4Y5       0.042600
     22 C8         -38.2490    20.5720    31.8730 ca         1 4Y5      -0.053600
     23 C13        -36.9360    20.0620    31.7680 ca         1 4Y5       0.151000
     24 Cl         -35.7840    20.7300    30.6070 cl         1 4Y5      -0.178000
     25 C10        -38.7320    18.8860    33.5770 ca         1 4Y5      -0.068000
     26 C9         -39.1670    19.9790    32.7900 ca         1 4Y5      -0.142300
     27 C14        -40.6040    20.5130    32.9450 c3         1 4Y5       0.343300
     28 F1         -41.3640    20.2160    31.8670 f          1 4Y5      -0.106667
     29 F2         -40.6350    21.8570    33.0970 f          1 4Y5      -0.106667
     30 F3         -41.2450    19.9990    34.0190 f          1 4Y5      -0.106667
     31 H1         -39.4150    26.0610    27.9870 ha         1 4Y5       0.112000
     32 H2         -39.5090    23.7430    28.8890 ha         1 4Y5       0.144000
     33 H3         -37.1030    17.5530    34.0780 ha         1 4Y5       0.125000
     34 H4         -35.5150    18.5940    32.4700 ha         1 4Y5       0.136000
     35 H5         -36.2020    27.7480    35.6990 ha         1 4Y5       0.151000
     36 H7         -33.0330    24.9110    34.8640 ha         1 4Y5       0.138000
     37 H8         -34.4470    23.8510    33.1420 ha         1 4Y5       0.102000
     38 H9         -38.0690    27.8140    29.1580 ha         1 4Y5       0.130000
     39 H10        -39.4050    18.4050    34.2840 ha         1 4Y5       0.135000
     40 C7         -38.6460    21.7300    30.9930 c          1 4Y5       0.651700
     41 O          -39.4020    21.5620    30.0400 o          1 4Y5      -0.538100
     42 F4         -37.8530    26.7580    33.9630 f          1 4Y5      -0.201000
@<TRIPOS>BOND
     1     1     2 ar  
     2     1    19 ar  
     3     1    31 1   
     4     2     3 ar  
     5     2    32 1   
     6     3     4 ar  
     7     3    21 1   
     8     4     5 ar  
     9     4     6 1   
    10     5    18 1   
    11     5    19 ar  
    12     6    17 1   
    13     6    20 2   
    14     7     8 ar  
    15     7    25 ar  
    16     7    33 1   
    17     8    23 ar  
    18     8    34 1   
    19     9    10 ar  
    20     9    17 ar  
    21     9    42 1   
    22    10    11 ar  
    23    10    35 1   
    24    11    12 1   
    25    11    15 ar  
    26    12    13 1   
    27    12    14 1   
    28    15    16 ar  
    29    15    36 1   
    30    16    17 ar  
    31    16    37 1   
    32    19    38 1   
    33    20    21 1   
    34    21    40 1   
    35    22    23 ar  
    36    22    26 ar  
    37    22    40 1   
    38    23    24 1   
    39    25    26 ar  
    40    25    39 1   
    41    26    27 1   
    42    27    28 1   
    43    27    29 1   
    44    27    30 1   
    45    40    41 2   
@<TRIPOS>SUBSTRUCTURE
     1 4Y5         1 TEMP              0 ****  ****    0 ROOT
