@<TRIPOS>MOLECULE
4Y6
   49    52     1     0     0
SMALL
No Charge or Current Charge


@<TRIPOS>ATOM
      1 F3           2.7190     3.2850     0.1640 f          1 4Y6      -0.158000
      2 C            1.3730     3.3890     0.1660 ca         1 4Y6       0.250000
      3 C5           0.5530     2.2610     0.0460 ca         1 4Y6      -0.253900
      4 C6           0.8720     0.8700    -0.0950 cc         1 4Y6       0.498200
      5 C15          2.1970     0.2610    -0.1220 ce         1 4Y6      -0.206800
      6 C20          2.7290    -0.2930    -1.2380 c2         1 4Y6      -0.137200
      7 C19          4.1180    -0.9180    -1.2970 c6         1 4Y6      -0.028200
      8 C18          4.6920    -1.3440     0.0960 c6         1 4Y6      -0.175000
      9 C22          3.9970    -2.6490     0.6080 c3         1 4Y6      -0.063100
     10 C21          6.2290    -1.6270    -0.0190 c          1 4Y6       0.723000
     11 O2           6.8640    -1.6910     1.0250 o          1 4Y6      -0.731000
     12 O1           6.6200    -2.2070    -1.0230 o          1 4Y6      -0.731000
     13 C17          4.4390    -0.1370     1.0630 c6         1 4Y6      -0.049400
     14 C16          2.9370     0.2110     1.2200 c6         1 4Y6      -0.024200
     15 N           -0.2340     0.1400    -0.2420 nd         1 4Y6      -0.477300
     16 N1          -1.3360     1.0340    -0.1770 n          1 4Y6       0.057600
     17 C4          -0.8110     2.3550     0.0050 ca         1 4Y6      -0.047000
     18 C3          -1.4520     3.6040     0.1070 ca         1 4Y6      -0.131000
     19 C2          -0.6520     4.7580     0.2490 ca         1 4Y6      -0.062000
     20 C1           0.7590     4.6500     0.2730 ca         1 4Y6      -0.199000
     21 C7          -2.7170     0.6820    -0.2650 c          1 4Y6       0.651700
     22 O           -3.6310     1.4950    -0.1580 o          1 4Y6      -0.534100
     23 C8          -3.0090    -0.7740    -0.5250 ca         1 4Y6      -0.058600
     24 C13         -3.5590    -1.6190     0.4840 ca         1 4Y6      -0.151300
     25 C14         -3.8570    -1.0900     1.9010 c3         1 4Y6       0.357300
     26 F2          -2.8110    -0.4060     2.4190 f          1 4Y6      -0.107667
     27 F1          -4.9210    -0.2570     1.9070 f          1 4Y6      -0.107667
     28 F           -4.1360    -2.0760     2.7840 f          1 4Y6      -0.107667
     29 C12         -3.8220    -2.9740     0.1670 ca         1 4Y6      -0.068000
     30 C11         -3.5420    -3.4820    -1.1110 ca         1 4Y6      -0.096000
     31 C10         -3.0030    -2.6450    -2.0970 ca         1 4Y6      -0.076000
     32 C9          -2.7390    -1.2980    -1.8090 ca         1 4Y6       0.149000
     33 Cl          -2.1120    -0.2740    -3.1040 cl         1 4Y6      -0.170000
     34 H1           2.1740    -0.2790    -2.1780 ha         1 4Y6       0.153000
     35 H2           4.0980    -1.7800    -1.9790 hc         1 4Y6       0.060200
     36 H3           4.7950    -0.1860    -1.7610 hc         1 4Y6       0.060200
     37 H4           4.2310    -3.5030    -0.0390 hc         1 4Y6       0.017033
     38 H5           4.3260    -2.9060     1.6220 hc         1 4Y6       0.017033
     39 H6           2.9050    -2.5550     0.6300 hc         1 4Y6       0.017033
     40 H8           4.8570    -0.3430     2.0580 hc         1 4Y6       0.047200
     41 H9           4.9730     0.7480     0.6880 hc         1 4Y6       0.047200
     42 H10          2.8400     1.1690     1.7470 hc         1 4Y6       0.033700
     43 H11          2.4510    -0.5330     1.8670 hc         1 4Y6       0.033700
     44 H12         -2.5340     3.7010     0.0740 ha         1 4Y6       0.144000
     45 H13         -1.1220     5.7360     0.3290 ha         1 4Y6       0.112000
     46 H14          1.3730     5.5420     0.3700 ha         1 4Y6       0.129000
     47 H15         -4.2450    -3.6480     0.9090 ha         1 4Y6       0.134000
     48 H16         -3.7490    -4.5250    -1.3380 ha         1 4Y6       0.124000
     49 H17         -2.7960    -3.0370    -3.0900 ha         1 4Y6       0.136000
@<TRIPOS>BOND
     1     1     2 1   
     2     2     3 ar  
     3     2    20 ar  
     4     3     4 1   
     5     3    17 ar  
     6     4     5 1   
     7     4    15 2   
     8     5     6 2   
     9     5    14 1   
    10     6     7 1   
    11     6    34 1   
    12     7     8 1   
    13     7    35 1   
    14     7    36 1   
    15     8     9 1   
    16     8    10 1   
    17     8    13 1   
    18     9    37 1   
    19     9    38 1   
    20     9    39 1   
    21    10    11 1   
    22    10    12 1   
    23    13    14 1   
    24    13    40 1   
    25    13    41 1   
    26    14    42 1   
    27    14    43 1   
    28    15    16 1   
    29    16    17 1   
    30    16    21 1   
    31    17    18 ar  
    32    18    19 ar  
    33    18    44 1   
    34    19    20 ar  
    35    19    45 1   
    36    20    46 1   
    37    21    22 2   
    38    21    23 1   
    39    23    24 ar  
    40    23    32 ar  
    41    24    25 1   
    42    24    29 ar  
    43    25    26 1   
    44    25    27 1   
    45    25    28 1   
    46    29    30 ar  
    47    29    47 1   
    48    30    31 ar  
    49    30    48 1   
    50    31    32 ar  
    51    31    49 1   
    52    32    33 1   
@<TRIPOS>SUBSTRUCTURE
     1 4Y6         1 TEMP              0 ****  ****    0 ROOT
