@<TRIPOS>MOLECULE
4Y6
   49    52     1     0     0
SMALL
abcg2


@<TRIPOS>ATOM
      1 F3           2.5760     3.5960    -0.1170 f          1 4Y6      -0.158000
      2 C            1.2540     3.5940    -0.3000 ca         1 4Y6       0.250000
      3 C5           0.5470     2.3940    -0.2930 ca         1 4Y6      -0.253900
      4 C6           0.8470     0.9890    -0.1100 cc         1 4Y6       0.498200
      5 C15          2.1210     0.2910     0.0710 ce         1 4Y6      -0.206800
      6 C20          3.2320     0.6800    -0.5620 c2         1 4Y6      -0.137200
      7 C19          4.5450    -0.0280    -0.4670 c6         1 4Y6      -0.028200
      8 C18          4.4440    -1.4500     0.0960 c6         1 4Y6      -0.175000
      9 C22          3.9080    -2.3930    -0.9890 c3         1 4Y6      -0.063100
     10 C21          5.8530    -1.9640     0.4870 c          1 4Y6       0.723000
     11 O2           5.9610    -2.6350     1.5320 o          1 4Y6      -0.731000
     12 O1           6.7800    -1.6900    -0.3040 o          1 4Y6      -0.731000
     13 C17          3.4940    -1.4250     1.2930 c6         1 4Y6      -0.049400
     14 C16          2.0950    -0.9440     0.9280 c6         1 4Y6      -0.024200
     15 N           -0.2560     0.3020    -0.1010 nd         1 4Y6      -0.477300
     16 N1          -1.2840     1.1580    -0.3010 n          1 4Y6       0.057600
     17 C4          -0.8470     2.4620    -0.4250 ca         1 4Y6      -0.047000
     18 C3          -1.5410     3.6550    -0.6070 ca         1 4Y6      -0.131000
     19 C2          -0.7840     4.8100    -0.6380 ca         1 4Y6      -0.062000
     20 C1           0.6060     4.7920    -0.4800 ca         1 4Y6      -0.199000
     21 C7          -2.5700     0.6790    -0.3410 c          1 4Y6       0.651700
     22 O           -3.5270     1.3970    -0.4860 o          1 4Y6      -0.534100
     23 C8          -2.6960    -0.8120    -0.2200 ca         1 4Y6      -0.058600
     24 C13         -3.1250    -1.4270     0.9540 ca         1 4Y6      -0.151300
     25 C14         -3.4060    -0.6080     2.1810 c3         1 4Y6       0.357300
     26 F2          -2.5220     0.3880     2.3260 f          1 4Y6      -0.107667
     27 F1          -4.6200    -0.0480     2.1330 f          1 4Y6      -0.107667
     28 F           -3.3560    -1.3390     3.2940 f          1 4Y6      -0.107667
     29 C12         -3.3170    -2.8010     0.9930 ca         1 4Y6      -0.068000
     30 C11         -3.0850    -3.5660    -0.1390 ca         1 4Y6      -0.096000
     31 C10         -2.6620    -2.9690    -1.3140 ca         1 4Y6      -0.076000
     32 C9          -2.4710    -1.5980    -1.3410 ca         1 4Y6       0.149000
     33 CL          -1.9380    -0.8480    -2.8020 cl         1 4Y6      -0.170000
     34 H1           3.2070     1.5510    -1.2060 ha         1 4Y6       0.153000
     35 H2           5.0140    -0.0420    -1.4540 hc         1 4Y6       0.060200
     36 H3           5.2120     0.5830     0.1550 hc         1 4Y6       0.060200
     37 H4           4.6150    -2.4670    -1.8160 hc         1 4Y6       0.017033
     38 H5           3.7500    -3.3980    -0.5910 hc         1 4Y6       0.017033
     39 H6           2.9570    -2.0520    -1.4030 hc         1 4Y6       0.017033
     40 H8           3.4280    -2.4190     1.7390 hc         1 4Y6       0.047200
     41 H9           3.9060    -0.7680     2.0660 hc         1 4Y6       0.047200
     42 H10          1.5260    -0.7430     1.8400 hc         1 4Y6       0.033700
     43 H11          1.5350    -1.7300     0.4110 hc         1 4Y6       0.033700
     44 H12         -2.6130     3.6920    -0.7100 ha         1 4Y6       0.144000
     45 H13         -1.2780     5.7620    -0.7790 ha         1 4Y6       0.112000
     46 H14          1.1710     5.7140    -0.4870 ha         1 4Y6       0.129000
     47 H15         -3.6430    -3.2890     1.9010 ha         1 4Y6       0.134000
     48 H16         -3.2340    -4.6360    -0.1060 ha         1 4Y6       0.124000
     49 H17         -2.4780    -3.5620    -2.1990 ha         1 4Y6       0.136000
@<TRIPOS>BOND
     1     1     2 1   
     2     2     3 ar  
     3     2    20 ar  
     4     3     4 1   
     5     3    17 ar  
     6     4     5 1   
     7     4    15 2   
     8     5     6 2   
     9     5    14 1   
    10     6     7 1   
    11     6    34 1   
    12     7     8 1   
    13     7    35 1   
    14     7    36 1   
    15     8     9 1   
    16     8    10 1   
    17     8    13 1   
    18     9    37 1   
    19     9    38 1   
    20     9    39 1   
    21    10    11 1   
    22    10    12 1   
    23    13    14 1   
    24    13    40 1   
    25    13    41 1   
    26    14    42 1   
    27    14    43 1   
    28    15    16 1   
    29    16    17 1   
    30    16    21 1   
    31    17    18 ar  
    32    18    19 ar  
    33    18    44 1   
    34    19    20 ar  
    35    19    45 1   
    36    20    46 1   
    37    21    22 2   
    38    21    23 1   
    39    23    24 ar  
    40    23    32 ar  
    41    24    25 1   
    42    24    29 ar  
    43    25    26 1   
    44    25    27 1   
    45    25    28 1   
    46    29    30 ar  
    47    29    47 1   
    48    30    31 ar  
    49    30    48 1   
    50    31    32 ar  
    51    31    49 1   
    52    32    33 1   
@<TRIPOS>SUBSTRUCTURE
     1 4Y6         1 TEMP              0 ****  ****    0 ROOT
