@<TRIPOS>MOLECULE
4Y7
   42    45     1     0     0
SMALL
No Charge or Current Charge


@<TRIPOS>ATOM
      1 C10          3.6970     3.3350     1.0750 ca         1 4Y7      -0.096000
      2 C11          3.9160     2.8460    -0.2220 ca         1 4Y7      -0.067000
      3 C13          3.8380     0.9980    -1.9920 c3         1 4Y7       0.356300
      4 C14         -2.1950    -0.2660     0.1980 ca         1 4Y7      -0.142900
      5 C17         -4.7370     1.0280     0.3150 ca         1 4Y7      -0.225600
      6 C15         -3.2230    -0.7720     1.0190 ca         1 4Y7       0.116000
      7 C16         -4.4770    -0.1410     1.0710 ca         1 4Y7      -0.081000
      8 C20         -6.0970     1.6940     0.3820 c          1 4Y7       0.723600
      9 O3          -6.2730     2.7110    -0.2770 o          1 4Y7      -0.691500
     10 O2          -6.9600     1.1920     1.0860 o          1 4Y7      -0.691500
     11 C18         -3.6910     1.5510    -0.4800 ca         1 4Y7       0.190100
     12 O1          -3.8820     2.6810    -1.2110 oh         1 4Y7      -0.622100
     13 C19         -2.4380     0.9200    -0.5270 ca         1 4Y7      -0.155000
     14 C5          -0.8670    -0.8880     0.1610 cc         1 4Y7       0.382900
     15 C4          -0.5970    -2.2970    -0.0630 ca         1 4Y7       0.233700
     16 N           -1.4560    -3.3210    -0.2900 nb         1 4Y7      -0.572000
     17 C           -0.8910    -4.5360    -0.5030 ca         1 4Y7       0.305900
     18 N1           0.2630    -0.1780     0.2500 nd         1 4Y7      -0.458300
     19 N2           1.3350    -1.1020     0.1350 n          1 4Y7       0.058600
     20 C3           0.7700    -2.4070    -0.0740 ca         1 4Y7      -0.124000
     21 C2           1.3780    -3.6550    -0.2960 ca         1 4Y7      -0.069000
     22 C1           0.5080    -4.7450    -0.5100 ca         1 4Y7      -0.148000
     23 C6           2.7280    -0.7870     0.1790 c          1 4Y7       0.653700
     24 O            3.6140    -1.6230     0.0230 o          1 4Y7      -0.533100
     25 C7           3.0690     0.6550     0.4560 ca         1 4Y7      -0.059600
     26 C12          3.6060     1.5060    -0.5550 ca         1 4Y7      -0.149300
     27 F2           2.7560     0.3550    -2.4860 f          1 4Y7      -0.107333
     28 F1           4.1140     1.9940    -2.8650 f          1 4Y7      -0.107333
     29 F            4.8770     0.1360    -2.0520 f          1 4Y7      -0.107333
     30 C9           3.1690     2.4940     2.0630 ca         1 4Y7      -0.076000
     31 C8           2.8590     1.1600     1.7590 ca         1 4Y7       0.149000
     32 Cl           2.2500     0.1270     3.0550 cl         1 4Y7      -0.170000
     33 H1           3.9400     4.3680     1.3150 ha         1 4Y7       0.124000
     34 H2           4.3310     3.5240    -0.9660 ha         1 4Y7       0.134000
     35 H3          -5.2440    -0.5640     1.7160 ha         1 4Y7       0.143000
     36 H5          -4.8290     2.9420    -1.0200 ho         1 4Y7       0.549000
     37 H6          -1.6520     1.3500    -1.1430 ha         1 4Y7       0.118000
     38 H7          -1.5760    -5.3650    -0.6760 h4         1 4Y7       0.019100
     39 H8           2.4560    -3.7940    -0.3140 ha         1 4Y7       0.141000
     40 H9           0.9050    -5.7400    -0.6900 ha         1 4Y7       0.116000
     41 H10          3.0090     2.8710     3.0700 ha         1 4Y7       0.136000
     42 F3          -3.0040    -1.8450     1.8100 f          1 4Y7      -0.195000
@<TRIPOS>BOND
     1     1     2 ar  
     2     1    30 ar  
     3     1    33 1   
     4     2    26 ar  
     5     2    34 1   
     6     3    26 1   
     7     3    27 1   
     8     3    28 1   
     9     3    29 1   
    10     4     6 ar  
    11     4    13 ar  
    12     4    14 1   
    13     5     7 ar  
    14     5     8 1   
    15     5    11 ar  
    16     6     7 ar  
    17     6    42 1   
    18     7    35 1   
    19     8     9 1   
    20     8    10 1   
    21    11    12 1   
    22    11    13 ar  
    23    12    36 1   
    24    13    37 1   
    25    14    15 1   
    26    14    18 2   
    27    15    16 ar  
    28    15    20 ar  
    29    16    17 ar  
    30    17    22 ar  
    31    17    38 1   
    32    18    19 1   
    33    19    20 1   
    34    19    23 1   
    35    20    21 ar  
    36    21    22 ar  
    37    21    39 1   
    38    22    40 1   
    39    23    24 2   
    40    23    25 1   
    41    25    26 ar  
    42    25    31 ar  
    43    30    31 ar  
    44    30    41 1   
    45    31    32 1   
@<TRIPOS>SUBSTRUCTURE
     1 4Y7         1 TEMP              0 ****  ****    0 ROOT
