@<TRIPOS>MOLECULE
4Y7
   42    45     1     0     0
SMALL
abcg2


@<TRIPOS>ATOM
      1 C10          3.4300     3.2800     1.1060 ca         1 4Y7      -0.096000
      2 C11          3.5240     2.8600    -0.2120 ca         1 4Y7      -0.067000
      3 C13          3.3880     1.0880    -1.9660 c3         1 4Y7       0.356300
      4 C14         -2.0380    -0.2490     0.2010 ca         1 4Y7      -0.142900
      5 C17         -4.4830     1.1160     0.2680 ca         1 4Y7      -0.225600
      6 C15         -3.1010    -0.7120     0.9680 ca         1 4Y7       0.116000
      7 C16         -4.3050    -0.0500     1.0050 ca         1 4Y7      -0.081000
      8 C20         -5.8080     1.8400     0.2940 c          1 4Y7       0.723600
      9 O3          -5.8670     2.8880    -0.4190 o          1 4Y7      -0.691500
     10 O2          -6.7230     1.3870     0.9840 o          1 4Y7      -0.691500
     11 C18         -3.4170     1.6150    -0.5030 ca         1 4Y7       0.190100
     12 O1          -3.5510     2.7300    -1.2170 oh         1 4Y7      -0.622100
     13 C19         -2.2050     0.9250    -0.5250 ca         1 4Y7      -0.155000
     14 C5          -0.7600    -0.9610     0.1610 cc         1 4Y7       0.382900
     15 C4          -0.5200    -2.3680    -0.0460 ca         1 4Y7       0.233700
     16 N           -1.3750    -3.3670    -0.2300 nb         1 4Y7      -0.572000
     17 C           -0.8290    -4.5530    -0.4200 ca         1 4Y7       0.305900
     18 N1           0.3670    -0.3230     0.2450 nd         1 4Y7      -0.458300
     19 N2           1.3640    -1.2300     0.1160 n          1 4Y7       0.058600
     20 C3           0.8690    -2.5020    -0.0670 ca         1 4Y7      -0.124000
     21 C2           1.4490    -3.7510    -0.2620 ca         1 4Y7      -0.069000
     22 C1           0.5550    -4.7880    -0.4360 ca         1 4Y7      -0.148000
     23 C6           2.6790    -0.8260     0.1670 c          1 4Y7       0.653700
     24 O            3.5880    -1.5980     0.0120 o          1 4Y7      -0.533100
     25 C7           2.8880     0.6320     0.4530 ca         1 4Y7      -0.059600
     26 C12          3.2560     1.5390    -0.5400 ca         1 4Y7      -0.149300
     27 F2           2.4270     0.2140    -2.2990 f          1 4Y7      -0.107333
     28 F1           3.3100     2.1030    -2.8250 f          1 4Y7      -0.107333
     29 F            4.5590     0.4770    -2.1830 f          1 4Y7      -0.107333
     30 C9           3.0700     2.3900     2.1030 ca         1 4Y7      -0.076000
     31 C8           2.8020     1.0750     1.7640 ca         1 4Y7       0.149000
     32 CL           2.3510    -0.0430     3.0020 cl         1 4Y7      -0.170000
     33 H1           3.6400     4.3100     1.3590 ha         1 4Y7       0.124000
     34 H2           3.8030     3.5740    -0.9730 ha         1 4Y7       0.134000
     35 H3          -5.1140    -0.4310     1.6140 ha         1 4Y7       0.143000
     36 H5          -4.5170     3.0150    -1.0350 ho         1 4Y7       0.549000
     37 H6          -1.3900     1.2980    -1.1320 ha         1 4Y7       0.118000
     38 H7          -1.5100    -5.3820    -0.5750 h4         1 4Y7       0.019100
     39 H8           2.5160    -3.9130    -0.2840 ha         1 4Y7       0.141000
     40 H9           0.9150    -5.7940    -0.5970 ha         1 4Y7       0.116000
     41 H10          2.9960     2.7130     3.1320 ha         1 4Y7       0.136000
     42 F3          -2.9310    -1.8130     1.7200 f          1 4Y7      -0.195000
@<TRIPOS>BOND
     1     1     2 ar  
     2     1    30 ar  
     3     1    33 1   
     4     2    26 ar  
     5     2    34 1   
     6     3    26 1   
     7     3    27 1   
     8     3    28 1   
     9     3    29 1   
    10     4     6 ar  
    11     4    13 ar  
    12     4    14 1   
    13     5     7 ar  
    14     5     8 1   
    15     5    11 ar  
    16     6     7 ar  
    17     6    42 1   
    18     7    35 1   
    19     8     9 1   
    20     8    10 1   
    21    11    12 1   
    22    11    13 ar  
    23    12    36 1   
    24    13    37 1   
    25    14    15 1   
    26    14    18 2   
    27    15    16 ar  
    28    15    20 ar  
    29    16    17 ar  
    30    17    22 ar  
    31    17    38 1   
    32    18    19 1   
    33    19    20 1   
    34    19    23 1   
    35    20    21 ar  
    36    21    22 ar  
    37    21    39 1   
    38    22    40 1   
    39    23    24 2   
    40    23    25 1   
    41    25    26 ar  
    42    25    31 ar  
    43    30    31 ar  
    44    30    41 1   
    45    31    32 1   
@<TRIPOS>SUBSTRUCTURE
     1 4Y7         1 TEMP              0 ****  ****    0 ROOT
