@<TRIPOS>MOLECULE
4Y8
   11    10     1     0     0
SMALL
bcc


@<TRIPOS>ATOM
      1 O            0.4250    -1.3370     0.0410 o          1 4Y8      -0.486100
      2 C            0.5100    -0.1320     0.0340 c          1 4Y8       0.565100
      3 CM2          1.8230     0.5980     0.0050 c3         1 4Y8      -0.203100
      4 CM1         -0.7060     0.7570     0.0290 c3         1 4Y8       0.031400
      5 O1          -1.8670    -0.0090    -0.0830 oh         1 4Y8      -0.564800
      6 H1           2.0810     0.8130    -1.0350 hc         1 4Y8       0.061033
      7 H2           1.7700     1.5540     0.5250 hc         1 4Y8       0.061033
      8 H3           2.6200    -0.0060     0.4320 hc         1 4Y8       0.061033
      9 H4          -0.6690     1.3500     0.9560 h1         1 4Y8       0.033700
     10 H5          -0.5840     1.4820    -0.7890 h1         1 4Y8       0.033700
     11 H6          -2.6200     0.5870    -0.0360 ho         1 4Y8       0.405000
@<TRIPOS>BOND
     1     1     2 2   
     2     2     3 1   
     3     2     4 1   
     4     3     6 1   
     5     3     7 1   
     6     3     8 1   
     7     4     5 1   
     8     4     9 1   
     9     4    10 1   
    10     5    11 1   
@<TRIPOS>SUBSTRUCTURE
     1 4Y8         1 TEMP              0 ****  ****    0 ROOT
