@<TRIPOS>MOLECULE
4Y8
   11    10     1     0     0
SMALL
No Charge or Current Charge


@<TRIPOS>ATOM
      1 O            0.5020    -1.3770     0.2180 o          1 4Y8      -0.486100
      2 C            0.5470    -0.1580     0.0860 c          1 4Y8       0.565100
      3 CM2          1.8860     0.5790     0.0350 c3         1 4Y8      -0.203100
      4 CM1         -0.7220     0.7390    -0.0380 c3         1 4Y8       0.054600
      5 O1          -1.9740     0.0090     0.0140 oh         1 4Y8      -0.627000
      6 H1           1.9300     1.1720    -0.8860 hc         1 4Y8       0.061033
      7 H2           1.8940     1.3560     0.8090 hc         1 4Y8       0.061033
      8 H3           2.7460    -0.0940     0.1270 hc         1 4Y8       0.061033
      9 H4          -0.6800     1.4790     0.7710 h1         1 4Y8       0.033700
     10 H5          -0.6420     1.2890    -0.9850 h1         1 4Y8       0.033700
     11 H6          -2.7030     0.6640    -0.0720 ho         1 4Y8       0.444000
@<TRIPOS>BOND
     1     1     2 2   
     2     2     3 1   
     3     2     4 1   
     4     3     6 1   
     5     3     7 1   
     6     3     8 1   
     7     4     5 1   
     8     4     9 1   
     9     4    10 1   
    10     5    11 1   
@<TRIPOS>SUBSTRUCTURE
     1 4Y8         1 TEMP              0 ****  ****    0 ROOT
