@<TRIPOS>MOLECULE
4YA
   62    63     1     0     0
SMALL
bcc


@<TRIPOS>ATOM
      1 C1          -2.0230    -1.3140     0.6420 c6         1 4YA       0.316900
      2 C2          -2.6140    -2.4620    -0.1800 c6         1 4YA       0.090100
      3 O2          -3.6220    -2.0190    -1.0570 oh         1 4YA      -0.592800
      4 C3          -1.5020    -3.2060    -0.9200 c6         1 4YA       0.130100
      5 O3          -1.9980    -4.3160    -1.6250 oh         1 4YA      -0.577800
      6 C4          -0.4410    -3.6660     0.0680 c6         1 4YA       0.127100
      7 O4          -1.0100    -4.6400     0.9100 oh         1 4YA      -0.574800
      8 C5           0.0700    -2.4430     0.8340 c6         1 4YA       0.112100
      9 O5          -1.0020    -1.7590     1.4760 os         1 4YA      -0.404600
     10 C6           1.0840    -2.7890     1.9040 c3         1 4YA      -0.091100
     11 O6           0.3740     5.5730    -0.8060 oh         1 4YA      -0.585800
     12 C6B          7.8760    -1.5960    -0.0700 c3         1 4YA      -0.089100
     13 C5B          6.9210    -0.4430    -0.3470 c3         1 4YA      -0.075400
     14 C4B          5.4900    -0.7430     0.0830 c3         1 4YA      -0.075400
     15 C3B          4.5240     0.3970    -0.2150 c3         1 4YA      -0.075400
     16 C2B          3.0980     0.0980     0.2300 c3         1 4YA      -0.083400
     17 C1B          2.1480     1.2200    -0.1360 c3         1 4YA       0.142400
     18 C1A         -0.1750     1.5850    -0.2530 c6         1 4YA       0.350900
     19 O5A         -0.1170     2.9420     0.1030 os         1 4YA      -0.414600
     20 C5A         -1.1050     3.7320    -0.5230 c6         1 4YA       0.130100
     21 C6A         -0.8330     5.1840    -0.1960 c3         1 4YA       0.145400
     22 C4A         -2.4950     3.2830    -0.0750 c6         1 4YA       0.087100
     23 O4A         -2.6890     3.4570     1.3080 oh         1 4YA      -0.564800
     24 C3A         -2.6480     1.7980    -0.4100 c6         1 4YA       0.132100
     25 O3A         -3.8600     1.2590     0.0450 oh         1 4YA      -0.572800
     26 C2A         -1.5080     0.9830     0.1950 c6         1 4YA       0.135100
     27 O2A         -1.5870    -0.3450    -0.2720 os         1 4YA      -0.453600
     28 H1          -2.7860    -0.8950     1.3060 h2         1 4YA       0.098700
     29 H2          -3.0960    -3.1540     0.5160 h1         1 4YA       0.112700
     30 H3          -3.3210    -1.2010    -1.4690 ho         1 4YA       0.411000
     31 H4          -1.0070    -2.5030    -1.6090 h1         1 4YA       0.036700
     32 H5          -2.6580    -3.9900    -2.2460 ho         1 4YA       0.413000
     33 H6           0.4090    -4.0780    -0.4950 h1         1 4YA       0.042700
     34 H7          -0.3090    -5.0540     1.4210 ho         1 4YA       0.403000
     35 H8           0.5520    -1.7790     0.1070 h1         1 4YA       0.057700
     36 H9           0.6500    -3.3900     2.7040 hc         1 4YA       0.045700
     37 H10          1.9160    -3.3450     1.4700 hc         1 4YA       0.045700
     38 H11          1.4940    -1.8830     2.3500 hc         1 4YA       0.045700
     39 H12          0.5470     6.4870    -0.5670 ho         1 4YA       0.407000
     40 H13          7.9160    -1.8270     0.9960 hc         1 4YA       0.032033
     41 H14          7.5600    -2.5020    -0.5900 hc         1 4YA       0.032033
     42 H15          8.8900    -1.3640    -0.3960 hc         1 4YA       0.032033
     43 H16          7.2720     0.4570     0.1670 hc         1 4YA       0.037200
     44 H17          6.9350    -0.2070    -1.4160 hc         1 4YA       0.037200
     45 H18          5.1420    -1.6520    -0.4190 hc         1 4YA       0.037700
     46 H19          5.4710    -0.9640     1.1560 hc         1 4YA       0.037700
     47 H20          4.8770     1.3110     0.2750 hc         1 4YA       0.039200
     48 H21          4.5370     0.6070    -1.2910 hc         1 4YA       0.039200
     49 H22          2.7560    -0.8330    -0.2310 hc         1 4YA       0.049200
     50 H23          3.0770    -0.0600     1.3120 hc         1 4YA       0.049200
     51 H24          2.1110     1.3340    -1.2280 h1         1 4YA       0.035200
     52 H25          2.5130     2.1690     0.2730 h1         1 4YA       0.035200
     53 H26         -0.0880     1.4920    -1.3550 h2         1 4YA       0.021700
     54 H27         -1.0530     3.6110    -1.6180 h1         1 4YA       0.047700
     55 H28         -0.7940     5.3120     0.8930 h1         1 4YA       0.028200
     56 H29         -1.6830     5.7760    -0.5610 h1         1 4YA       0.028200
     57 H30         -3.2410     3.8440    -0.6540 h1         1 4YA       0.033700
     58 H31         -3.0450     4.3350     1.4650 ho         1 4YA       0.402000
     59 H32         -2.5680     1.7120    -1.5040 h1         1 4YA       0.034700
     60 H33         -4.5610     1.5260    -0.5570 ho         1 4YA       0.406000
     61 H34         -1.5560     1.0220     1.2900 h1         1 4YA       0.103700
     62 O1           0.8550     0.9250     0.3690 os         1 4YA      -0.387600
@<TRIPOS>BOND
     1     1     2 1   
     2     1     9 1   
     3     1    27 1   
     4     1    28 1   
     5     2     3 1   
     6     2     4 1   
     7     2    29 1   
     8     3    30 1   
     9     4     5 1   
    10     4     6 1   
    11     4    31 1   
    12     5    32 1   
    13     6     7 1   
    14     6     8 1   
    15     6    33 1   
    16     7    34 1   
    17     8     9 1   
    18     8    10 1   
    19     8    35 1   
    20    10    36 1   
    21    10    37 1   
    22    10    38 1   
    23    11    21 1   
    24    11    39 1   
    25    12    13 1   
    26    12    40 1   
    27    12    41 1   
    28    12    42 1   
    29    13    14 1   
    30    13    43 1   
    31    13    44 1   
    32    14    15 1   
    33    14    45 1   
    34    14    46 1   
    35    15    16 1   
    36    15    47 1   
    37    15    48 1   
    38    16    17 1   
    39    16    49 1   
    40    16    50 1   
    41    17    51 1   
    42    17    52 1   
    43    17    62 1   
    44    18    19 1   
    45    18    26 1   
    46    18    53 1   
    47    18    62 1   
    48    19    20 1   
    49    20    21 1   
    50    20    22 1   
    51    20    54 1   
    52    21    55 1   
    53    21    56 1   
    54    22    23 1   
    55    22    24 1   
    56    22    57 1   
    57    23    58 1   
    58    24    25 1   
    59    24    26 1   
    60    24    59 1   
    61    25    60 1   
    62    26    27 1   
    63    26    61 1   
@<TRIPOS>SUBSTRUCTURE
     1 4YA         1 TEMP              0 ****  ****    0 ROOT
