@<TRIPOS>MOLECULE
4YA
   62    63     1     0     0
SMALL
No Charge or Current Charge


@<TRIPOS>ATOM
      1 C1          -2.3770    -1.3330     0.2720 c6         1 4YA       0.363300
      2 C2          -2.7550    -2.6140    -0.5510 c6         1 4YA       0.113300
      3 O2          -3.4680    -2.2740    -1.7690 oh         1 4YA      -0.715000
      4 C3          -1.4700    -3.4290    -0.9010 c6         1 4YA       0.153300
      5 O3          -1.8210    -4.6160    -1.6380 oh         1 4YA      -0.640000
      6 C4          -0.6530    -3.7470     0.3940 c6         1 4YA       0.150300
      7 O4          -1.4020    -4.6130     1.2820 oh         1 4YA      -0.697000
      8 C5          -0.3210    -2.3750     1.0670 c6         1 4YA       0.135300
      9 O5          -1.5410    -1.6730     1.4040 os         1 4YA      -0.451000
     10 C6           0.5090    -2.5010     2.3700 c3         1 4YA      -0.091100
     11 O6           0.5940     5.7340    -0.4630 oh         1 4YA      -0.708000
     12 C6B          8.1880    -1.4220     0.0370 c3         1 4YA      -0.089100
     13 C5B          7.1710    -0.4030    -0.5120 c3         1 4YA      -0.075400
     14 C4B          5.7320    -0.6560    -0.0120 c3         1 4YA      -0.075400
     15 C3B          4.7120     0.3650    -0.5630 c3         1 4YA      -0.075400
     16 C2B          3.2730     0.1110    -0.0620 c3         1 4YA      -0.083400
     17 C1B          2.2560     1.1290    -0.6130 c3         1 4YA       0.165600
     18 C1A         -0.1460     1.5710    -0.5180 c6         1 4YA       0.397300
     19 O5A          0.0200     2.9030     0.0120 os         1 4YA      -0.461000
     20 C5A         -1.0300     3.8200    -0.3810 c6         1 4YA       0.153300
     21 C6A         -0.6500     5.2620     0.0930 c3         1 4YA       0.168600
     22 C4A         -2.4080     3.3430     0.1810 c6         1 4YA       0.110300
     23 O4A         -2.4540     3.3530     1.6220 oh         1 4YA      -0.687000
     24 C3A         -2.6870     1.8960    -0.3250 c6         1 4YA       0.155300
     25 O3A         -3.9280     1.4190     0.2420 oh         1 4YA      -0.695000
     26 C2A         -1.4810     0.9430    -0.0050 c6         1 4YA       0.158300
     27 O2A         -1.6790    -0.3880    -0.5710 os         1 4YA      -0.500000
     28 H1          -3.3110    -0.8850     0.6410 h2         1 4YA       0.098700
     29 H2          -3.3880    -3.2390     0.0970 h1         1 4YA       0.112700
     30 H3          -3.0700    -1.4250    -2.0820 ho         1 4YA       0.510000
     31 H4          -0.8360    -2.7950    -1.5390 h1         1 4YA       0.036700
     32 H5          -2.6040    -4.3540    -2.1730 ho         1 4YA       0.452000
     33 H6           0.2910    -4.2310     0.1000 h1         1 4YA       0.042700
     34 H7          -0.8120    -4.8270     2.0400 ho         1 4YA       0.502000
     35 H8           0.2640    -1.7650     0.3630 h1         1 4YA       0.057700
     36 H9          -0.0470    -3.0200     3.1600 hc         1 4YA       0.045700
     37 H10          1.4400    -3.0520     2.1920 hc         1 4YA       0.045700
     38 H11          0.7820    -1.5100     2.7510 hc         1 4YA       0.045700
     39 H12          0.7880     6.6010    -0.0370 ho         1 4YA       0.506000
     40 H13          8.2220    -1.3850     1.1320 hc         1 4YA       0.032033
     41 H14          7.9200    -2.4410    -0.2680 hc         1 4YA       0.032033
     42 H15          9.1920    -1.2030    -0.3450 hc         1 4YA       0.032033
     43 H16          7.4850     0.6070    -0.2210 hc         1 4YA       0.037200
     44 H17          7.1860    -0.4400    -1.6090 hc         1 4YA       0.037200
     45 H18          5.4220    -1.6680    -0.3040 hc         1 4YA       0.037700
     46 H19          5.7200    -0.6210     1.0840 hc         1 4YA       0.037700
     47 H20          5.0210     1.3770    -0.2720 hc         1 4YA       0.039200
     48 H21          4.7230     0.3300    -1.6600 hc         1 4YA       0.039200
     49 H22          2.9620    -0.8990    -0.3550 hc         1 4YA       0.049200
     50 H23          3.2590     0.1500     1.0340 hc         1 4YA       0.049200
     51 H24          2.2480     1.0860    -1.7100 h1         1 4YA       0.035200
     52 H25          2.5430     2.1420    -0.3040 h1         1 4YA       0.035200
     53 H26         -0.1610     1.6100    -1.6170 h2         1 4YA       0.021700
     54 H27         -1.0840     3.8390    -1.4800 h1         1 4YA       0.047700
     55 H28         -0.5920     5.2640     1.1900 h1         1 4YA       0.028200
     56 H29         -1.4660     5.9400    -0.1910 h1         1 4YA       0.028200
     57 H30         -3.1900     4.0060    -0.2170 h1         1 4YA       0.033700
     58 H31         -3.1750     2.7190     1.8530 ho         1 4YA       0.501000
     59 H32         -2.7820     1.9390    -1.4200 h1         1 4YA       0.034700
     60 H33         -4.6540     1.7240    -0.3510 ho         1 4YA       0.505000
     61 H34         -1.3810     0.8580     1.0870 h1         1 4YA       0.103700
     62 O1           0.9720     0.7750    -0.0830 os         1 4YA      -0.434000
@<TRIPOS>BOND
     1     1     2 1   
     2     1     9 1   
     3     1    27 1   
     4     1    28 1   
     5     2     3 1   
     6     2     4 1   
     7     2    29 1   
     8     3    30 1   
     9     4     5 1   
    10     4     6 1   
    11     4    31 1   
    12     5    32 1   
    13     6     7 1   
    14     6     8 1   
    15     6    33 1   
    16     7    34 1   
    17     8     9 1   
    18     8    10 1   
    19     8    35 1   
    20    10    36 1   
    21    10    37 1   
    22    10    38 1   
    23    11    21 1   
    24    11    39 1   
    25    12    13 1   
    26    12    40 1   
    27    12    41 1   
    28    12    42 1   
    29    13    14 1   
    30    13    43 1   
    31    13    44 1   
    32    14    15 1   
    33    14    45 1   
    34    14    46 1   
    35    15    16 1   
    36    15    47 1   
    37    15    48 1   
    38    16    17 1   
    39    16    49 1   
    40    16    50 1   
    41    17    51 1   
    42    17    52 1   
    43    17    62 1   
    44    18    19 1   
    45    18    26 1   
    46    18    53 1   
    47    18    62 1   
    48    19    20 1   
    49    20    21 1   
    50    20    22 1   
    51    20    54 1   
    52    21    55 1   
    53    21    56 1   
    54    22    23 1   
    55    22    24 1   
    56    22    57 1   
    57    23    58 1   
    58    24    25 1   
    59    24    26 1   
    60    24    59 1   
    61    25    60 1   
    62    26    27 1   
    63    26    61 1   
@<TRIPOS>SUBSTRUCTURE
     1 4YA         1 TEMP              0 ****  ****    0 ROOT
