@<TRIPOS>MOLECULE
4YB
   59    62     1     0     0
SMALL
abcg2


@<TRIPOS>ATOM
      1 C1          -1.4380     1.9350     0.1430 ca         1 4YB       0.129500
      2 C2          -0.3710     2.3550    -0.6360 ca         1 4YB      -0.094600
      3 C3           0.1500     3.6330    -0.3440 ca         1 4YB       0.451900
      4 C4          -0.9300     0.4610    -1.3910 cc         1 4YB       0.358700
      5 N1          -0.4260     4.3210     0.6540 nb         1 4YB      -0.322000
      6 N2          -2.0070     2.6020     1.1450 nb         1 4YB      -0.256000
      7 O1           5.3940     2.3920    -1.7240 o          1 4YB      -0.699500
      8 O2           3.3040     2.9050    -2.3180 o          1 4YB      -0.699500
      9 C6           3.7960     2.8080    -0.0340 ca         1 4YB      -0.077600
     10 C7           4.1480     4.0040     0.5850 ca         1 4YB      -0.127000
     11 C8           3.7030     4.3120     1.8620 ca         1 4YB      -0.103000
     12 C9           2.8990     3.4140     2.5500 ca         1 4YB      -0.149000
     13 C10          2.5690     2.2080     1.9590 ca         1 4YB      -0.090000
     14 C11          3.0140     1.8850     0.6750 ca         1 4YB      -0.166600
     15 C12          2.7190     0.5550     0.0830 c          1 4YB       0.580700
     16 O3           3.2520     0.2010    -0.9460 o          1 4YB      -0.488100
     17 C13          1.7820    -0.3720     0.8240 c3         1 4YB      -0.173400
     18 C14          1.5770    -1.6820     0.0910 c3         1 4YB      -0.145400
     19 C15          0.6510    -2.6160     0.8210 c          1 4YB       0.630100
     20 O4           0.1860    -2.4310     1.9160 o          1 4YB      -0.519100
     21 N3           0.3720    -3.7640     0.0930 ns         1 4YB      -0.635300
     22 S1          -0.6910    -4.9420     0.5760 s6         1 4YB       1.444500
     23 O5          -0.6940    -5.9050    -0.4960 o          1 4YB      -0.548500
     24 O6          -0.4390    -5.3390     1.9330 o          1 4YB      -0.548500
     25 O7          -2.0750    -4.1750     0.6340 os         1 4YB      -0.554700
     26 C16         -2.6110    -3.6080    -0.5800 c3         1 4YB       0.212600
     27 C17         -3.3330    -2.3430    -0.2090 c5         1 4YB       0.160300
     28 O8          -2.4080    -1.4110     0.3160 os         1 4YB      -0.438000
     29 C18         -3.9330    -1.6230    -1.4130 c5         1 4YB       0.084300
     30 O9          -5.1500    -2.2010    -1.7820 oh         1 4YB      -0.711000
     31 C19         -4.0670    -0.1930    -0.8650 c5         1 4YB       0.097300
     32 O10         -5.2470    -0.0510    -0.1250 oh         1 4YB      -0.701000
     33 C20         -2.8820    -0.1010     0.1150 c5         1 4YB       0.312300
     34 N4          -1.7860     0.7090    -0.3510 na         1 4YB      -0.306300
     35 N5          -0.0700     1.4140    -1.5880 nd         1 4YB      -0.484100
     36 C21         -1.4350     3.7810     1.3260 ca         1 4YB       0.184900
     37 N6           1.1370     4.1990    -1.0380 nv         1 4YB      -1.022900
     38 H1          -0.9900    -0.4450    -1.9760 h5         1 4YB       0.048800
     39 H5           2.5380     3.6470     3.5430 ha         1 4YB       0.097000
     40 H6           1.9580     1.5120     2.5190 ha         1 4YB       0.099000
     41 H7           2.1940    -0.5580     1.8200 hc         1 4YB       0.072700
     42 H8           0.8280     0.1330     0.9940 hc         1 4YB       0.072700
     43 H9           1.1790    -1.5080    -0.9120 hc         1 4YB       0.076700
     44 H10          2.5280    -2.2000    -0.0570 hc         1 4YB       0.076700
     45 H11          0.7930    -3.9030    -0.8190 hn         1 4YB       0.344500
     46 H12         -1.8160    -3.3920    -1.2990 h1         1 4YB       0.057700
     47 H13         -3.3020    -4.3220    -1.0290 h1         1 4YB       0.057700
     48 H14         -4.1240    -2.5640     0.5200 h1         1 4YB       0.092700
     49 H15         -3.2140    -1.6300    -2.2420 h1         1 4YB       0.052700
     50 H16         -5.3310    -1.9940    -2.7050 ho         1 4YB       0.516000
     51 H17         -3.9930     0.5640    -1.6550 h1         1 4YB       0.073700
     52 H18         -5.9360    -0.5610    -0.5700 ho         1 4YB       0.518000
     53 H19         -3.2160     0.3510     1.0530 h2         1 4YB       0.129700
     54 H20         -1.8440     4.3900     2.1260 h5         1 4YB       0.031100
     55 H21          1.8030     3.6280    -1.5730 hn         1 4YB       0.525500
     56 H22          1.5130     5.0510    -0.6540 hn         1 4YB       0.525500
     57 H3           4.7590     4.7210     0.0500 ha         1 4YB       0.117000
     58 C5           4.2070     2.6510    -1.4890 c          1 4YB       0.731600
     59 H4           3.9810     5.2540     2.3160 ha         1 4YB       0.093000
@<TRIPOS>BOND
     1     1     2 ar  
     2     1     6 ar  
     3     1    34 1   
     4     2     3 ar  
     5     2    35 1   
     6     3     5 ar  
     7     3    37 1   
     8     4    34 1   
     9     4    35 2   
    10     4    38 1   
    11     5    36 ar  
    12     6    36 ar  
    13     7    58 1   
    14     8    58 1   
    15     9    10 ar  
    16     9    14 ar  
    17     9    58 1   
    18    10    11 ar  
    19    10    57 1   
    20    11    12 ar  
    21    11    59 1   
    22    12    13 ar  
    23    12    39 1   
    24    13    14 ar  
    25    13    40 1   
    26    14    15 1   
    27    15    16 2   
    28    15    17 1   
    29    17    18 1   
    30    17    41 1   
    31    17    42 1   
    32    18    19 1   
    33    18    43 1   
    34    18    44 1   
    35    19    20 2   
    36    19    21 1   
    37    21    22 1   
    38    21    45 1   
    39    22    23 2   
    40    22    24 2   
    41    22    25 1   
    42    25    26 1   
    43    26    27 1   
    44    26    46 1   
    45    26    47 1   
    46    27    28 1   
    47    27    29 1   
    48    27    48 1   
    49    28    33 1   
    50    29    30 1   
    51    29    31 1   
    52    29    49 1   
    53    30    50 1   
    54    31    32 1   
    55    31    33 1   
    56    31    51 1   
    57    32    52 1   
    58    33    34 1   
    59    33    53 1   
    60    36    54 1   
    61    37    55 1   
    62    37    56 1   
@<TRIPOS>SUBSTRUCTURE
     1 4YB         1 TEMP              0 ****  ****    0 ROOT
