@<TRIPOS>MOLECULE
4YB
   59    62     1     0     0
SMALL
No Charge or Current Charge


@<TRIPOS>ATOM
      1 C1          -1.4670     2.0600     0.2640 ca         1 4YB       0.129500
      2 C2          -0.6520     2.7740    -0.5770 ca         1 4YB      -0.094600
      3 C3           0.0500     3.8740    -0.0440 ca         1 4YB       0.451900
      4 C4          -1.5300     1.2460    -1.8080 cc         1 4YB       0.358700
      5 N1          -0.0630     4.2080     1.2500 nb         1 4YB      -0.322000
      6 N2          -1.6010     2.3660     1.5680 nb         1 4YB      -0.256000
      7 O1           4.7430     2.6220    -2.3770 o          1 4YB      -0.699500
      8 O2           2.6960     3.3040    -2.4950 o          1 4YB      -0.699500
      9 C6           3.5170     2.7370    -0.3740 ca         1 4YB      -0.077600
     10 C7           4.0600     3.7870     0.3990 ca         1 4YB      -0.127000
     11 C8           3.9360     3.7940     1.7940 ca         1 4YB      -0.103000
     12 C9           3.2660     2.7460     2.4350 ca         1 4YB      -0.149000
     13 C10          2.7250     1.6900     1.6870 ca         1 4YB      -0.090000
     14 C11          2.8350     1.6610     0.2730 ca         1 4YB      -0.166600
     15 C12          2.2620     0.4880    -0.5170 c          1 4YB       0.580700
     16 O3           2.6570     0.2200    -1.6440 o          1 4YB      -0.488100
     17 C13          1.2150    -0.4380     0.1290 c3         1 4YB      -0.173400
     18 C14          1.8850    -1.6840     0.7810 c3         1 4YB      -0.145400
     19 C15          0.8620    -2.5990     1.4620 c          1 4YB       0.630100
     20 O4           0.3670    -2.3230     2.5410 o          1 4YB      -0.519100
     21 N3           0.5880    -3.7390     0.7810 ns         1 4YB      -0.635300
     22 S1          -0.5930    -4.8520     1.1210 s6         1 4YB       1.444500
     23 O5          -0.6060    -5.8260     0.0260 o          1 4YB      -0.548500
     24 O6          -0.4620    -5.2770     2.5190 o          1 4YB      -0.548500
     25 O7          -1.8930    -3.8640     0.9850 os         1 4YB      -0.554700
     26 C16         -2.2750    -3.4810    -0.3490 c3         1 4YB       0.212600
     27 C17         -3.1520    -2.2100    -0.2510 c5         1 4YB       0.160300
     28 O8          -2.3800    -1.1030     0.2640 os         1 4YB      -0.438000
     29 C18         -3.6640    -1.6570    -1.6120 c5         1 4YB       0.084300
     30 O9          -4.7340    -2.4310    -2.1860 oh         1 4YB      -0.711000
     31 C19         -4.1620    -0.2570    -1.1490 c5         1 4YB       0.097300
     32 O10         -5.4690    -0.4010    -0.5700 oh         1 4YB      -0.701000
     33 C20         -3.0530     0.1280    -0.0930 c5         1 4YB       0.312300
     34 N4          -2.0350     1.0910    -0.5130 na         1 4YB      -0.306300
     35 N5          -0.6720     2.2770    -1.8820 nd         1 4YB      -0.484100
     36 C21         -0.8820     3.4300     1.9970 ca         1 4YB       0.184900
     37 N6           0.8740     4.6560    -0.7830 nv         1 4YB      -1.022900
     38 H1          -1.8210     0.6020    -2.6290 h5         1 4YB       0.048800
     39 H5           3.1700     2.7480     3.5190 ha         1 4YB       0.097000
     40 H6           2.2320     0.8910     2.2320 ha         1 4YB       0.099000
     41 H7           0.6580     0.1030     0.9020 hc         1 4YB       0.072700
     42 H8           0.5200    -0.7820    -0.6460 hc         1 4YB       0.072700
     43 H9           2.4150    -2.2370    -0.0040 hc         1 4YB       0.076700
     44 H10          2.6030    -1.3490     1.5380 hc         1 4YB       0.076700
     45 H11          1.0150    -3.9150    -0.1100 hn         1 4YB       0.344500
     46 H12         -1.4030    -3.2420    -0.9730 h1         1 4YB       0.057700
     47 H13         -2.8420    -4.2830    -0.8400 h1         1 4YB       0.057700
     48 H14         -3.9860    -2.4140     0.4350 h1         1 4YB       0.092700
     49 H15         -2.8280    -1.5630    -2.3200 h1         1 4YB       0.052700
     50 H16         -4.6370    -2.3970    -3.1690 ho         1 4YB       0.516000
     51 H17         -4.1920     0.4570    -1.9840 h1         1 4YB       0.073700
     52 H18         -5.8190    -1.2220    -1.0010 ho         1 4YB       0.518000
     53 H19         -3.5350     0.5620     0.7930 h2         1 4YB       0.129700
     54 H20         -0.9780     3.6920     3.0500 h5         1 4YB       0.031100
     55 H21          1.3330     4.1720    -1.5640 hn         1 4YB       0.525500
     56 H22          1.4970     5.2610    -0.2620 hn         1 4YB       0.525500
     57 H3           4.5760     4.6080    -0.0950 ha         1 4YB       0.117000
     58 C5           3.6480     2.8440    -1.8780 c          1 4YB       0.731600
     59 H4           4.3570     4.6110     2.3760 ha         1 4YB       0.093000
@<TRIPOS>BOND
     1     1     2 ar  
     2     1     6 ar  
     3     1    34 1   
     4     2     3 ar  
     5     2    35 1   
     6     3     5 ar  
     7     3    37 1   
     8     4    34 1   
     9     4    35 2   
    10     4    38 1   
    11     5    36 ar  
    12     6    36 ar  
    13     7    58 1   
    14     8    58 1   
    15     9    10 ar  
    16     9    14 ar  
    17     9    58 1   
    18    10    11 ar  
    19    10    57 1   
    20    11    12 ar  
    21    11    59 1   
    22    12    13 ar  
    23    12    39 1   
    24    13    14 ar  
    25    13    40 1   
    26    14    15 1   
    27    15    16 2   
    28    15    17 1   
    29    17    18 1   
    30    17    41 1   
    31    17    42 1   
    32    18    19 1   
    33    18    43 1   
    34    18    44 1   
    35    19    20 2   
    36    19    21 1   
    37    21    22 1   
    38    21    45 1   
    39    22    23 2   
    40    22    24 2   
    41    22    25 1   
    42    25    26 1   
    43    26    27 1   
    44    26    46 1   
    45    26    47 1   
    46    27    28 1   
    47    27    29 1   
    48    27    48 1   
    49    28    33 1   
    50    29    30 1   
    51    29    31 1   
    52    29    49 1   
    53    30    50 1   
    54    31    32 1   
    55    31    33 1   
    56    31    51 1   
    57    32    52 1   
    58    33    34 1   
    59    33    53 1   
    60    36    54 1   
    61    37    55 1   
    62    37    56 1   
@<TRIPOS>SUBSTRUCTURE
     1 4YB         1 TEMP              0 ****  ****    0 ROOT
